<?xml version="1.0" encoding="UTF-8"?>

<!-- generated on 2022-11-03 20:27:55 by Eclipse SUMO netedit Version 1.11.0
<configuration xmlns:xsi="http://www.w3.org/2001/XMLSchema-instance" xsi:noNamespaceSchemaLocation="http://sumo.dlr.de/xsd/netconvertConfiguration.xsd">

    <input>
        <sumo-net-file value="C:\Users\Alali\Desktop\myNewProject\intersections.net.xml"/>
    </input>

    <output>
        <output-file value="C:\Users\Alali\Desktop\myNewProject\intersections.net.xml"/>
        <plain-output-prefix value="C:\Users\Alali\Desktop\myNewProject\intersections"/>
    </output>

    <processing>
        <geometry.min-radius.fix.railways value="false"/>
        <geometry.max-grade.fix value="false"/>
        <offset.disable-normalization value="true"/>
        <lefthand value="false"/>
    </processing>

    <junctions>
        <no-internal-links value="false"/>
        <no-turnarounds value="true"/>
        <junctions.corner-detail value="5"/>
        <junctions.limit-turn-speed value="5.5"/>
        <rectangular-lane-cut value="false"/>
    </junctions>

    <pedestrian>
        <walkingareas value="false"/>
    </pedestrian>

    <report>
        <aggregate-warnings value="5"/>
    </report>

</configuration>
-->

<nodes version="1.9" xmlns:xsi="http://www.w3.org/2001/XMLSchema-instance" xsi:noNamespaceSchemaLocation="http://sumo.dlr.de/xsd/nodes_file.xsd">
    <location netOffset="0.00,0.00" convBoundary="-100.00,-100.00,100.00,100.00" origBoundary="-10000000000.00,-10000000000.00,10000000000.00,10000000000.00" projParameter="!"/>

    <node id="J2" x="0.00" y="0.00" type="traffic_light_right_on_red" tl="J2" tlType="actuated"/>
    <node id="J3" x="100.00" y="0.00" type="dead_end"/>
    <node id="J6" x="0.00" y="-100.00" type="dead_end"/>
    <node id="J7" x="0.00" y="100.00" type="dead_end"/>
    <node id="J8" x="-100.00" y="0.00" type="dead_end"/>
</nodes>
