<?xml version="1.0" encoding="UTF-8"?>

<!-- generated on 2022-11-03 20:27:55 by Eclipse SUMO netedit Version 1.11.0
<configuration xmlns:xsi="http://www.w3.org/2001/XMLSchema-instance" xsi:noNamespaceSchemaLocation="http://sumo.dlr.de/xsd/netconvertConfiguration.xsd">

    <input>
        <sumo-net-file value="C:\Users\Alali\Desktop\myNewProject\intersections.net.xml"/>
    </input>

    <output>
        <output-file value="C:\Users\Alali\Desktop\myNewProject\intersections.net.xml"/>
        <plain-output-prefix value="C:\Users\Alali\Desktop\myNewProject\intersections"/>
    </output>

    <processing>
        <geometry.min-radius.fix.railways value="false"/>
        <geometry.max-grade.fix value="false"/>
        <offset.disable-normalization value="true"/>
        <lefthand value="false"/>
    </processing>

    <junctions>
        <no-internal-links value="false"/>
        <no-turnarounds value="true"/>
        <junctions.corner-detail value="5"/>
        <junctions.limit-turn-speed value="5.5"/>
        <rectangular-lane-cut value="false"/>
    </junctions>

    <pedestrian>
        <walkingareas value="false"/>
    </pedestrian>

    <report>
        <aggregate-warnings value="5"/>
    </report>

</configuration>
-->

<connections version="1.9" xmlns:xsi="http://www.w3.org/2001/XMLSchema-instance" xsi:noNamespaceSchemaLocation="http://sumo.dlr.de/xsd/connections_file.xsd">
    <connection from="-E1" to="E6" fromLane="1" toLane="1"/>
    <connection from="-E1" to="E10" fromLane="1" toLane="1"/>
    <connection from="-E1" to="E10" fromLane="2" toLane="2"/>
    <connection from="-E1" to="-E5" fromLane="2" toLane="2"/>

    <connection from="-E10" to="-E5" fromLane="1" toLane="1"/>
    <connection from="-E10" to="E1" fromLane="1" toLane="1"/>
    <connection from="-E10" to="E1" fromLane="2" toLane="2"/>
    <connection from="-E10" to="E6" fromLane="2" toLane="2"/>

    <connection from="-E5"/>

    <connection from="-E6" to="E10" fromLane="1" toLane="1"/>
    <connection from="-E6" to="-E5" fromLane="1" toLane="1"/>
    <connection from="-E6" to="-E5" fromLane="2" toLane="2"/>
    <connection from="-E6" to="E1" fromLane="2" toLane="2"/>

    <connection from="E1"/>

    <connection from="E10"/>

    <connection from="E5" to="E1" fromLane="1" toLane="1"/>
    <connection from="E5" to="E6" fromLane="1" toLane="1"/>
    <connection from="E5" to="E6" fromLane="2" toLane="2"/>
    <connection from="E5" to="E10" fromLane="2" toLane="2"/>

    <connection from="E6"/>

    <crossing node="J2" edges="E6 -E6" priority="1" width="4.00" linkIndex="16"/>
    <crossing node="J2" edges="E1 -E1" priority="1" width="4.00" linkIndex="17"/>
    <crossing node="J2" edges="-E5 E5" priority="1" width="4.00" linkIndex="18"/>
    <crossing node="J2" edges="E10 -E10" priority="1" width="4.00" linkIndex="19"/>
    <crossing node="J8" edges="-E10 E10" priority="1" width="4.00" linkIndex="17"/>
    <crossing node="J8" edges="-E9 E9" priority="1" width="4.00" linkIndex="18"/>
</connections>
