<?xml version="1.0" encoding="UTF-8"?>

<!-- generated on 2022-11-16 14:11:30 by Eclipse SUMO netedit Version 1.11.0
<configuration xmlns:xsi="http://www.w3.org/2001/XMLSchema-instance" xsi:noNamespaceSchemaLocation="http://sumo.dlr.de/xsd/netconvertConfiguration.xsd">

    <input>
        <sumo-net-file value="D:\VirEnv\sumo_test\Source\myNewProject\intersections.net.xml"/>
    </input>

    <output>
        <output-file value="D:\VirEnv\sumo_test\Source\myNewProject\intersections.net.xml"/>
    </output>

    <processing>
        <geometry.min-radius.fix.railways value="false"/>
        <geometry.max-grade.fix value="false"/>
        <offset.disable-normalization value="true"/>
        <lefthand value="false"/>
    </processing>

    <junctions>
        <no-internal-links value="false"/>
        <no-turnarounds value="true"/>
        <junctions.corner-detail value="5"/>
        <junctions.limit-turn-speed value="5.5"/>
        <rectangular-lane-cut value="false"/>
    </junctions>

    <pedestrian>
        <walkingareas value="false"/>
    </pedestrian>

    <report>
        <aggregate-warnings value="5"/>
    </report>

</configuration>
-->

<net version="1.9" junctionCornerDetail="5" limitTurnSpeed="5.50" xmlns:xsi="http://www.w3.org/2001/XMLSchema-instance" xsi:noNamespaceSchemaLocation="http://sumo.dlr.de/xsd/net_file.xsd">

    <location netOffset="0.00,0.00" convBoundary="-200.00,-200.00,200.00,200.00" origBoundary="-10000000000.00,-10000000000.00,10000000000.00,10000000000.00" projParameter="!"/>

    <edge id=":J2_0" function="internal">
        <lane id=":J2_0_0" index="0" disallow="pedestrian" speed="6.51" length="4.75" shape="-4.80,10.40 -5.15,7.95 -6.20,6.20 -6.40,6.08"/>
    </edge>
    <edge id=":J2_1" function="internal">
        <lane id=":J2_1_0" index="0" disallow="pedestrian" speed="13.89" length="20.80" shape="-4.80,10.40 -4.80,-10.40"/>
        <lane id=":J2_1_1" index="1" disallow="pedestrian" speed="13.89" length="20.80" shape="-1.60,10.40 -1.60,-10.40"/>
    </edge>
    <edge id=":J2_3" function="internal">
        <lane id=":J2_3_0" index="0" disallow="pedestrian" speed="9.26" length="6.96" shape="-1.60,10.40 -0.85,5.15 -0.00,3.73"/>
    </edge>
    <edge id=":J2_16" function="internal">
        <lane id=":J2_16_0" index="0" disallow="pedestrian" speed="6.51" length="4.28" shape="-6.40,6.08 -7.95,5.15 -10.40,4.80"/>
    </edge>
    <edge id=":J2_17" function="internal">
        <lane id=":J2_17_0" index="0" disallow="pedestrian" speed="9.26" length="12.40" shape="-0.00,3.73 1.40,1.40 5.15,-0.85 10.40,-1.60"/>
    </edge>
    <edge id=":J2_4" function="internal">
        <lane id=":J2_4_0" index="0" disallow="pedestrian" speed="6.51" length="4.75" shape="10.40,4.80 7.95,5.15 6.20,6.20 6.08,6.40"/>
    </edge>
    <edge id=":J2_5" function="internal">
        <lane id=":J2_5_0" index="0" disallow="pedestrian" speed="13.89" length="20.80" shape="10.40,4.80 -10.40,4.80"/>
        <lane id=":J2_5_1" index="1" disallow="pedestrian" speed="13.89" length="20.80" shape="10.40,1.60 -10.40,1.60"/>
    </edge>
    <edge id=":J2_7" function="internal">
        <lane id=":J2_7_0" index="0" disallow="pedestrian" speed="9.26" length="6.96" shape="10.40,1.60 5.15,0.85 3.73,0.00"/>
    </edge>
    <edge id=":J2_18" function="internal">
        <lane id=":J2_18_0" index="0" disallow="pedestrian" speed="6.51" length="4.28" shape="6.08,6.40 5.15,7.95 4.80,10.40"/>
    </edge>
    <edge id=":J2_19" function="internal">
        <lane id=":J2_19_0" index="0" disallow="pedestrian" speed="9.26" length="12.40" shape="3.73,0.00 1.40,-1.40 -0.85,-5.15 -1.60,-10.40"/>
    </edge>
    <edge id=":J2_8" function="internal">
        <lane id=":J2_8_0" index="0" disallow="pedestrian" speed="6.51" length="4.75" shape="4.80,-10.40 5.15,-7.95 6.20,-6.20 6.40,-6.08"/>
    </edge>
    <edge id=":J2_9" function="internal">
        <lane id=":J2_9_0" index="0" disallow="pedestrian" speed="13.89" length="20.80" shape="4.80,-10.40 4.80,10.40"/>
        <lane id=":J2_9_1" index="1" disallow="pedestrian" speed="13.89" length="20.80" shape="1.60,-10.40 1.60,10.40"/>
    </edge>
    <edge id=":J2_11" function="internal">
        <lane id=":J2_11_0" index="0" disallow="pedestrian" speed="9.26" length="6.96" shape="1.60,-10.40 0.85,-5.15 0.00,-3.73"/>
    </edge>
    <edge id=":J2_20" function="internal">
        <lane id=":J2_20_0" index="0" disallow="pedestrian" speed="6.51" length="4.28" shape="6.40,-6.08 7.95,-5.15 10.40,-4.80"/>
    </edge>
    <edge id=":J2_21" function="internal">
        <lane id=":J2_21_0" index="0" disallow="pedestrian" speed="9.26" length="12.40" shape="0.00,-3.73 -1.40,-1.40 -5.15,0.85 -10.40,1.60"/>
    </edge>
    <edge id=":J2_12" function="internal">
        <lane id=":J2_12_0" index="0" disallow="pedestrian" speed="6.51" length="4.75" shape="-10.40,-4.80 -7.95,-5.15 -6.20,-6.20 -6.08,-6.40"/>
    </edge>
    <edge id=":J2_13" function="internal">
        <lane id=":J2_13_0" index="0" disallow="pedestrian" speed="13.89" length="20.80" shape="-10.40,-4.80 10.40,-4.80"/>
        <lane id=":J2_13_1" index="1" disallow="pedestrian" speed="13.89" length="20.80" shape="-10.40,-1.60 10.40,-1.60"/>
    </edge>
    <edge id=":J2_15" function="internal">
        <lane id=":J2_15_0" index="0" disallow="pedestrian" speed="9.26" length="6.96" shape="-10.40,-1.60 -5.15,-0.85 -3.73,-0.00"/>
    </edge>
    <edge id=":J2_22" function="internal">
        <lane id=":J2_22_0" index="0" disallow="pedestrian" speed="6.51" length="4.28" shape="-6.08,-6.40 -5.15,-7.95 -4.80,-10.40"/>
    </edge>
    <edge id=":J2_23" function="internal">
        <lane id=":J2_23_0" index="0" disallow="pedestrian" speed="9.26" length="12.40" shape="-3.73,-0.00 -1.40,1.40 0.85,5.15 1.60,10.40"/>
    </edge>
    <edge id=":J2_c0" function="crossing" crossingEdges="E6 -E6">
        <lane id=":J2_c0_0" index="0" allow="pedestrian" speed="1.00" length="12.80" width="4.00" shape="6.40,8.40 -6.40,8.40"/>
    </edge>
    <edge id=":J2_c1" function="crossing" crossingEdges="E1 -E1">
        <lane id=":J2_c1_0" index="0" allow="pedestrian" speed="1.00" length="12.80" width="4.00" shape="8.40,-6.40 8.40,6.40"/>
    </edge>
    <edge id=":J2_c2" function="crossing" crossingEdges="-E5 E5">
        <lane id=":J2_c2_0" index="0" allow="pedestrian" speed="1.00" length="12.80" width="4.00" shape="-6.40,-8.40 6.40,-8.40"/>
    </edge>
    <edge id=":J2_c3" function="crossing" crossingEdges="E10 -E10">
        <lane id=":J2_c3_0" index="0" allow="pedestrian" speed="1.00" length="12.80" width="4.00" shape="-8.40,6.40 -8.40,-6.40"/>
    </edge>
    <edge id=":J2_w0" function="walkingarea">
        <lane id=":J2_w0_0" index="0" allow="pedestrian" speed="1.00" length="3.30" width="4.00" shape="-10.40,6.40 -10.40,8.40 -8.40,10.40 -6.40,10.40 -6.51,9.18 -6.84,8.18 -7.40,7.40 -8.18,6.84 -9.18,6.51"/>
    </edge>
    <edge id=":J2_w1" function="walkingarea">
        <lane id=":J2_w1_0" index="0" allow="pedestrian" speed="1.00" length="3.30" width="4.00" shape="6.40,10.40 8.40,10.40 10.40,8.40 10.40,6.40 9.18,6.51 8.18,6.84 7.40,7.40 6.84,8.18 6.51,9.18"/>
    </edge>
    <edge id=":J2_w2" function="walkingarea">
        <lane id=":J2_w2_0" index="0" allow="pedestrian" speed="1.00" length="3.30" width="4.00" shape="10.40,-6.40 10.40,-8.40 8.40,-10.40 6.40,-10.40 6.51,-9.18 6.84,-8.18 7.40,-7.40 8.18,-6.84 9.18,-6.51"/>
    </edge>
    <edge id=":J2_w3" function="walkingarea">
        <lane id=":J2_w3_0" index="0" allow="pedestrian" speed="1.00" length="3.30" width="4.00" shape="-6.40,-10.40 -8.40,-10.40 -10.40,-8.40 -10.40,-6.40 -9.18,-6.51 -8.18,-6.84 -7.40,-7.40 -6.84,-8.18 -6.51,-9.18"/>
    </edge>
    <edge id=":J3_w0" function="walkingarea">
        <lane id=":J3_w0_0" index="0" allow="pedestrian" speed="1.00" length="14.80" width="2.00" shape="200.00,6.40 200.00,8.40 200.00,-8.40 200.00,-6.40"/>
    </edge>
    <edge id=":J6_w0" function="walkingarea">
        <lane id=":J6_w0_0" index="0" allow="pedestrian" speed="1.00" length="14.80" width="2.00" shape="6.40,-200.00 8.40,-200.00 -8.40,-200.00 -6.40,-200.00"/>
    </edge>
    <edge id=":J7_w0" function="walkingarea">
        <lane id=":J7_w0_0" index="0" allow="pedestrian" speed="1.00" length="14.80" width="2.00" shape="-6.40,200.00 -8.40,200.00 8.40,200.00 6.40,200.00"/>
    </edge>
    <edge id=":J8_w0" function="walkingarea">
        <lane id=":J8_w0_0" index="0" allow="pedestrian" speed="1.00" length="14.80" width="2.00" shape="-200.00,-6.40 -200.00,-8.40 -200.00,8.40 -200.00,6.40"/>
    </edge>

    <edge id="-E1" from="J3" to="J2" priority="-1">
        <lane id="-E1_0" index="0" allow="pedestrian" speed="13.89" length="189.60" width="2.00" shape="200.00,7.40 10.40,7.40"/>
        <lane id="-E1_1" index="1" disallow="pedestrian" speed="13.89" length="189.60" shape="200.00,4.80 10.40,4.80"/>
        <lane id="-E1_2" index="2" disallow="pedestrian" speed="13.89" length="189.60" shape="200.00,1.60 10.40,1.60"/>
    </edge>
    <edge id="-E10" from="J8" to="J2" priority="-1">
        <lane id="-E10_0" index="0" allow="pedestrian" speed="13.89" length="189.60" width="2.00" shape="-200.00,-7.40 -10.40,-7.40"/>
        <lane id="-E10_1" index="1" disallow="pedestrian" speed="13.89" length="189.60" shape="-200.00,-4.80 -10.40,-4.80"/>
        <lane id="-E10_2" index="2" disallow="pedestrian" speed="13.89" length="189.60" shape="-200.00,-1.60 -10.40,-1.60"/>
    </edge>
    <edge id="-E5" from="J2" to="J6" priority="-1">
        <lane id="-E5_0" index="0" allow="pedestrian" speed="13.89" length="189.60" width="2.00" shape="-7.40,-10.40 -7.40,-200.00"/>
        <lane id="-E5_1" index="1" disallow="pedestrian" speed="13.89" length="189.60" shape="-4.80,-10.40 -4.80,-200.00"/>
        <lane id="-E5_2" index="2" disallow="pedestrian" speed="13.89" length="189.60" shape="-1.60,-10.40 -1.60,-200.00"/>
    </edge>
    <edge id="-E6" from="J7" to="J2" priority="-1">
        <lane id="-E6_0" index="0" allow="pedestrian" speed="13.89" length="189.60" width="2.00" shape="-7.40,200.00 -7.40,10.40"/>
        <lane id="-E6_1" index="1" disallow="pedestrian" speed="13.89" length="189.60" shape="-4.80,200.00 -4.80,10.40"/>
        <lane id="-E6_2" index="2" disallow="pedestrian" speed="13.89" length="189.60" shape="-1.60,200.00 -1.60,10.40"/>
    </edge>
    <edge id="E1" from="J2" to="J3" priority="-1">
        <lane id="E1_0" index="0" allow="pedestrian" speed="13.89" length="189.60" width="2.00" shape="10.40,-7.40 200.00,-7.40"/>
        <lane id="E1_1" index="1" disallow="pedestrian" speed="13.89" length="189.60" shape="10.40,-4.80 200.00,-4.80"/>
        <lane id="E1_2" index="2" disallow="pedestrian" speed="13.89" length="189.60" shape="10.40,-1.60 200.00,-1.60"/>
    </edge>
    <edge id="E10" from="J2" to="J8" priority="-1">
        <lane id="E10_0" index="0" allow="pedestrian" speed="13.89" length="189.60" width="2.00" shape="-10.40,7.40 -200.00,7.40"/>
        <lane id="E10_1" index="1" disallow="pedestrian" speed="13.89" length="189.60" shape="-10.40,4.80 -200.00,4.80"/>
        <lane id="E10_2" index="2" disallow="pedestrian" speed="13.89" length="189.60" shape="-10.40,1.60 -200.00,1.60"/>
    </edge>
    <edge id="E5" from="J6" to="J2" priority="1">
        <lane id="E5_0" index="0" allow="pedestrian" speed="13.89" length="189.60" width="2.00" shape="7.40,-200.00 7.40,-10.40"/>
        <lane id="E5_1" index="1" disallow="pedestrian" speed="13.89" length="189.60" shape="4.80,-200.00 4.80,-10.40"/>
        <lane id="E5_2" index="2" disallow="pedestrian" speed="13.89" length="189.60" shape="1.60,-200.00 1.60,-10.40"/>
    </edge>
    <edge id="E6" from="J2" to="J7" priority="1">
        <lane id="E6_0" index="0" allow="pedestrian" speed="13.89" length="189.60" width="2.00" shape="7.40,10.40 7.40,200.00"/>
        <lane id="E6_1" index="1" disallow="pedestrian" speed="13.89" length="189.60" shape="4.80,10.40 4.80,200.00"/>
        <lane id="E6_2" index="2" disallow="pedestrian" speed="13.89" length="189.60" shape="1.60,10.40 1.60,200.00"/>
    </edge>

    <tlLogic id="J2" type="actuated" programID="0" offset="0">
        <phase duration="37" state="gGGgsrrrgGGgsrrrrGrG" minDur="5" maxDur="50"/>
        <phase duration="5"  state="gGGgsrrrgGGgsrrrrrrr"/>
        <phase duration="3"  state="yyyysrrryyyysrrrrrrr"/>
        <phase duration="37" state="srrrgGGgsrrrgGGgGrGr" minDur="5" maxDur="50"/>
        <phase duration="5"  state="srrrgGGgsrrrgGGgrrrr"/>
        <phase duration="3"  state="srrryyyysrrryyyyrrrr"/>
    </tlLogic>

    <junction id="J2" type="traffic_light_right_on_red" x="0.00" y="0.00" incLanes="-E6_0 -E6_1 -E6_2 -E1_0 -E1_1 -E1_2 E5_0 E5_1 E5_2 -E10_0 -E10_1 -E10_2 :J2_w1_0 :J2_w2_0 :J2_w3_0 :J2_w0_0" intLanes=":J2_16_0 :J2_1_0 :J2_1_1 :J2_17_0 :J2_18_0 :J2_5_0 :J2_5_1 :J2_19_0 :J2_20_0 :J2_9_0 :J2_9_1 :J2_21_0 :J2_22_0 :J2_13_0 :J2_13_1 :J2_23_0 :J2_c0_0 :J2_c1_0 :J2_c2_0 :J2_c3_0" shape="-8.40,10.40 8.40,10.40 8.62,9.29 8.90,8.90 9.29,8.62 9.79,8.46 10.40,8.40 10.40,-8.40 9.29,-8.62 8.90,-8.90 8.62,-9.29 8.46,-9.79 8.40,-10.40 -8.40,-10.40 -8.62,-9.29 -8.90,-8.90 -9.29,-8.62 -9.79,-8.46 -10.40,-8.40 -10.40,8.40 -9.29,8.62 -8.90,8.90 -8.62,9.29 -8.46,9.79">
        <request index="0"  response="10010000000001100000" foes="10010000000001100000" cont="1"/>
        <request index="1"  response="01011001000010000000" foes="01011111100011100000" cont="0"/>
        <request index="2"  response="01011001000010000000" foes="01011111100011100000" cont="0"/>
        <request index="3"  response="00111000011010000000" foes="00111110011011100000" cont="1"/>
        <request index="4"  response="00110000011000000000" foes="00110000011000000000" cont="1"/>
        <request index="5"  response="10100000111000001111" foes="10101000111000001111" cont="0"/>
        <request index="6"  response="10100000111000001111" foes="10101000111000001111" cont="0"/>
        <request index="7"  response="01100110111000001110" foes="01100110111000001110" cont="1"/>
        <request index="8"  response="01100110000000000000" foes="01100110000000000000" cont="1"/>
        <request index="9"  response="01011000000010010000" foes="01011110000011111000" cont="0"/>
        <request index="10" response="01011000000010010000" foes="01011110000011111000" cont="0"/>
        <request index="11" response="11001000000010000110" foes="11001110000011100110" cont="1"/>
        <request index="12" response="11000000000000000110" foes="11000000000000000110" cont="1"/>
        <request index="13" response="10100000111100001110" foes="10100000111110001110" cont="0"/>
        <request index="14" response="10100000111100001110" foes="10100000111110001110" cont="0"/>
        <request index="15" response="10010000111001101110" foes="10010000111001101110" cont="1"/>
        <request index="16" response="00000000000000000000" foes="00001000011000011111" cont="0"/>
        <request index="17" response="00000000000000000000" foes="00000110000111111000" cont="0"/>
        <request index="18" response="00000000000000000000" foes="00000001111110000110" cont="0"/>
        <request index="19" response="00000000000000000000" foes="00001111100001100001" cont="0"/>
    </junction>
    <junction id="J3" type="dead_end" x="200.00" y="0.00" incLanes="E1_0 E1_1 E1_2" intLanes="" shape="200.00,0.00 200.00,-8.40 200.00,0.00"/>
    <junction id="J6" type="dead_end" x="0.00" y="-200.00" incLanes="-E5_0 -E5_1 -E5_2" intLanes="" shape="0.00,-200.00 -8.40,-200.00 0.00,-200.00"/>
    <junction id="J7" type="dead_end" x="0.00" y="200.00" incLanes="E6_0 E6_1 E6_2" intLanes="" shape="0.00,200.00 8.40,200.00 0.00,200.00"/>
    <junction id="J8" type="dead_end" x="-200.00" y="0.00" incLanes="E10_0 E10_1 E10_2" intLanes="" shape="-200.00,0.00 -200.00,8.40 -200.00,0.00"/>

    <junction id=":J2_16_0" type="internal" x="-6.40" y="6.08" incLanes=":J2_0_0" intLanes=":J2_5_0 :J2_5_1 :J2_11_0 :J2_c0_0 :J2_c3_0"/>
    <junction id=":J2_17_0" type="internal" x="-0.00" y="3.73" incLanes=":J2_3_0 E5_1 E5_2" intLanes=":J2_5_0 :J2_5_1 :J2_7_0 :J2_8_0 :J2_9_0 :J2_9_1 :J2_13_0 :J2_13_1 :J2_15_0 :J2_c0_0 :J2_c1_0"/>
    <junction id=":J2_18_0" type="internal" x="6.08" y="6.40" incLanes=":J2_4_0" intLanes=":J2_9_0 :J2_9_1 :J2_15_0 :J2_c0_0 :J2_c1_0"/>
    <junction id=":J2_19_0" type="internal" x="3.73" y="0.00" incLanes=":J2_7_0 -E10_1 -E10_2" intLanes=":J2_1_0 :J2_1_1 :J2_3_0 :J2_9_0 :J2_9_1 :J2_11_0 :J2_12_0 :J2_13_0 :J2_13_1 :J2_c1_0 :J2_c2_0"/>
    <junction id=":J2_20_0" type="internal" x="6.40" y="-6.08" incLanes=":J2_8_0" intLanes=":J2_3_0 :J2_13_0 :J2_13_1 :J2_c1_0 :J2_c2_0"/>
    <junction id=":J2_21_0" type="internal" x="0.00" y="-3.73" incLanes=":J2_11_0 -E6_1 -E6_2" intLanes=":J2_0_0 :J2_1_0 :J2_1_1 :J2_5_0 :J2_5_1 :J2_7_0 :J2_13_0 :J2_13_1 :J2_15_0 :J2_c2_0 :J2_c3_0"/>
    <junction id=":J2_22_0" type="internal" x="-6.08" y="-6.40" incLanes=":J2_12_0" intLanes=":J2_1_0 :J2_1_1 :J2_7_0 :J2_c2_0 :J2_c3_0"/>
    <junction id=":J2_23_0" type="internal" x="-3.73" y="-0.00" incLanes=":J2_15_0 -E1_1 -E1_2" intLanes=":J2_1_0 :J2_1_1 :J2_3_0 :J2_4_0 :J2_5_0 :J2_5_1 :J2_9_0 :J2_9_1 :J2_11_0 :J2_c0_0 :J2_c3_0"/>

    <connection from="-E1" to="E6" fromLane="1" toLane="1" via=":J2_4_0" tl="J2" linkIndex="4" dir="r" state="o"/>
    <connection from="-E1" to="E10" fromLane="1" toLane="1" via=":J2_5_0" tl="J2" linkIndex="5" dir="s" state="o"/>
    <connection from="-E1" to="E10" fromLane="2" toLane="2" via=":J2_5_1" tl="J2" linkIndex="6" dir="s" state="o"/>
    <connection from="-E1" to="-E5" fromLane="2" toLane="2" via=":J2_7_0" tl="J2" linkIndex="7" dir="l" state="o"/>
    <connection from="-E10" to="-E5" fromLane="1" toLane="1" via=":J2_12_0" tl="J2" linkIndex="12" dir="r" state="o"/>
    <connection from="-E10" to="E1" fromLane="1" toLane="1" via=":J2_13_0" tl="J2" linkIndex="13" dir="s" state="o"/>
    <connection from="-E10" to="E1" fromLane="2" toLane="2" via=":J2_13_1" tl="J2" linkIndex="14" dir="s" state="o"/>
    <connection from="-E10" to="E6" fromLane="2" toLane="2" via=":J2_15_0" tl="J2" linkIndex="15" dir="l" state="o"/>
    <connection from="-E6" to="E10" fromLane="1" toLane="1" via=":J2_0_0" tl="J2" linkIndex="0" dir="r" state="o"/>
    <connection from="-E6" to="-E5" fromLane="1" toLane="1" via=":J2_1_0" tl="J2" linkIndex="1" dir="s" state="o"/>
    <connection from="-E6" to="-E5" fromLane="2" toLane="2" via=":J2_1_1" tl="J2" linkIndex="2" dir="s" state="o"/>
    <connection from="-E6" to="E1" fromLane="2" toLane="2" via=":J2_3_0" tl="J2" linkIndex="3" dir="l" state="o"/>
    <connection from="E5" to="E1" fromLane="1" toLane="1" via=":J2_8_0" tl="J2" linkIndex="8" dir="r" state="o"/>
    <connection from="E5" to="E6" fromLane="1" toLane="1" via=":J2_9_0" tl="J2" linkIndex="9" dir="s" state="o"/>
    <connection from="E5" to="E6" fromLane="2" toLane="2" via=":J2_9_1" tl="J2" linkIndex="10" dir="s" state="o"/>
    <connection from="E5" to="E10" fromLane="2" toLane="2" via=":J2_11_0" tl="J2" linkIndex="11" dir="l" state="o"/>

    <connection from=":J2_0" to="E10" fromLane="0" toLane="1" via=":J2_16_0" dir="r" state="m"/>
    <connection from=":J2_16" to="E10" fromLane="0" toLane="1" dir="r" state="M"/>
    <connection from=":J2_1" to="-E5" fromLane="0" toLane="1" dir="s" state="M"/>
    <connection from=":J2_1" to="-E5" fromLane="1" toLane="2" dir="s" state="M"/>
    <connection from=":J2_3" to="E1" fromLane="0" toLane="2" via=":J2_17_0" dir="l" state="m"/>
    <connection from=":J2_17" to="E1" fromLane="0" toLane="2" dir="l" state="M"/>
    <connection from=":J2_4" to="E6" fromLane="0" toLane="1" via=":J2_18_0" dir="r" state="m"/>
    <connection from=":J2_18" to="E6" fromLane="0" toLane="1" dir="r" state="M"/>
    <connection from=":J2_5" to="E10" fromLane="0" toLane="1" dir="s" state="M"/>
    <connection from=":J2_5" to="E10" fromLane="1" toLane="2" dir="s" state="M"/>
    <connection from=":J2_7" to="-E5" fromLane="0" toLane="2" via=":J2_19_0" dir="l" state="m"/>
    <connection from=":J2_19" to="-E5" fromLane="0" toLane="2" dir="l" state="M"/>
    <connection from=":J2_8" to="E1" fromLane="0" toLane="1" via=":J2_20_0" dir="r" state="m"/>
    <connection from=":J2_20" to="E1" fromLane="0" toLane="1" dir="r" state="M"/>
    <connection from=":J2_9" to="E6" fromLane="0" toLane="1" dir="s" state="M"/>
    <connection from=":J2_9" to="E6" fromLane="1" toLane="2" dir="s" state="M"/>
    <connection from=":J2_11" to="E10" fromLane="0" toLane="2" via=":J2_21_0" dir="l" state="m"/>
    <connection from=":J2_21" to="E10" fromLane="0" toLane="2" dir="l" state="M"/>
    <connection from=":J2_12" to="-E5" fromLane="0" toLane="1" via=":J2_22_0" dir="r" state="m"/>
    <connection from=":J2_22" to="-E5" fromLane="0" toLane="1" dir="r" state="M"/>
    <connection from=":J2_13" to="E1" fromLane="0" toLane="1" dir="s" state="M"/>
    <connection from=":J2_13" to="E1" fromLane="1" toLane="2" dir="s" state="M"/>
    <connection from=":J2_15" to="E6" fromLane="0" toLane="2" via=":J2_23_0" dir="l" state="m"/>
    <connection from=":J2_23" to="E6" fromLane="0" toLane="2" dir="l" state="M"/>

    <connection from=":J2_c0" to=":J2_w0" fromLane="0" toLane="0" dir="s" state="M"/>
    <connection from=":J2_c1" to=":J2_w1" fromLane="0" toLane="0" dir="s" state="M"/>
    <connection from=":J2_c2" to=":J2_w2" fromLane="0" toLane="0" dir="s" state="M"/>
    <connection from=":J2_c3" to=":J2_w3" fromLane="0" toLane="0" dir="s" state="M"/>
    <connection from=":J2_w0" to=":J2_c3" fromLane="0" toLane="0" tl="J2" linkIndex="19" dir="s" state="M"/>
    <connection from=":J2_w0" to="E10" fromLane="0" toLane="0" dir="s" state="M"/>
    <connection from="-E6" to=":J2_w0" fromLane="0" toLane="0" dir="s" state="M"/>
    <connection from=":J2_w1" to=":J2_c0" fromLane="0" toLane="0" tl="J2" linkIndex="16" dir="s" state="M"/>
    <connection from=":J2_w1" to="E6" fromLane="0" toLane="0" dir="s" state="M"/>
    <connection from="-E1" to=":J2_w1" fromLane="0" toLane="0" dir="s" state="M"/>
    <connection from=":J2_w2" to=":J2_c1" fromLane="0" toLane="0" tl="J2" linkIndex="17" dir="s" state="M"/>
    <connection from=":J2_w2" to="E1" fromLane="0" toLane="0" dir="s" state="M"/>
    <connection from="E5" to=":J2_w2" fromLane="0" toLane="0" dir="s" state="M"/>
    <connection from=":J2_w3" to=":J2_c2" fromLane="0" toLane="0" tl="J2" linkIndex="18" dir="s" state="M"/>
    <connection from=":J2_w3" to="-E5" fromLane="0" toLane="0" dir="s" state="M"/>
    <connection from="-E10" to=":J2_w3" fromLane="0" toLane="0" dir="s" state="M"/>
    <connection from=":J3_w0" to="-E1" fromLane="0" toLane="0" dir="s" state="M"/>
    <connection from="E1" to=":J3_w0" fromLane="0" toLane="0" dir="s" state="M"/>
    <connection from=":J6_w0" to="E5" fromLane="0" toLane="0" dir="s" state="M"/>
    <connection from="-E5" to=":J6_w0" fromLane="0" toLane="0" dir="s" state="M"/>
    <connection from=":J7_w0" to="-E6" fromLane="0" toLane="0" dir="s" state="M"/>
    <connection from="E6" to=":J7_w0" fromLane="0" toLane="0" dir="s" state="M"/>
    <connection from=":J8_w0" to="-E10" fromLane="0" toLane="0" dir="s" state="M"/>
    <connection from="E10" to=":J8_w0" fromLane="0" toLane="0" dir="s" state="M"/>
</net>
