<?xml version="1.0" encoding="UTF-8"?>

<!-- generated on 2022-11-03 20:27:55 by Eclipse SUMO netedit Version 1.11.0
<configuration xmlns:xsi="http://www.w3.org/2001/XMLSchema-instance" xsi:noNamespaceSchemaLocation="http://sumo.dlr.de/xsd/netconvertConfiguration.xsd">

    <input>
        <sumo-net-file value="C:\Users\Alali\Desktop\myNewProject\intersections.net.xml"/>
    </input>

    <output>
        <output-file value="C:\Users\Alali\Desktop\myNewProject\intersections.net.xml"/>
        <plain-output-prefix value="C:\Users\Alali\Desktop\myNewProject\intersections"/>
    </output>

    <processing>
        <geometry.min-radius.fix.railways value="false"/>
        <geometry.max-grade.fix value="false"/>
        <offset.disable-normalization value="true"/>
        <lefthand value="false"/>
    </processing>

    <junctions>
        <no-internal-links value="false"/>
        <no-turnarounds value="true"/>
        <junctions.corner-detail value="5"/>
        <junctions.limit-turn-speed value="5.5"/>
        <rectangular-lane-cut value="false"/>
    </junctions>

    <pedestrian>
        <walkingareas value="false"/>
    </pedestrian>

    <report>
        <aggregate-warnings value="5"/>
    </report>

</configuration>
-->

<edges version="1.9" xmlns:xsi="http://www.w3.org/2001/XMLSchema-instance" xsi:noNamespaceSchemaLocation="http://sumo.dlr.de/xsd/edges_file.xsd">
    <edge id="-E1" from="J3" to="J2" priority="-1" numLanes="3" speed="13.89">
        <lane index="0" allow="pedestrian" width="2.00"/>
        <lane index="1" disallow="pedestrian"/>
        <lane index="2" disallow="pedestrian"/>
    </edge>
    <edge id="-E10" from="J8" to="J2" priority="-1" numLanes="3" speed="13.89">
        <lane index="0" allow="pedestrian" width="2.00"/>
        <lane index="1" disallow="pedestrian"/>
        <lane index="2" disallow="pedestrian"/>
    </edge>
    <edge id="-E5" from="J2" to="J6" priority="-1" numLanes="3" speed="13.89">
        <lane index="0" allow="pedestrian" width="2.00"/>
        <lane index="1" disallow="pedestrian"/>
        <lane index="2" disallow="pedestrian"/>
    </edge>
    <edge id="-E6" from="J7" to="J2" priority="-1" numLanes="3" speed="13.89">
        <lane index="0" allow="pedestrian" width="2.00"/>
        <lane index="1" disallow="pedestrian"/>
        <lane index="2" disallow="pedestrian"/>
    </edge>
    <edge id="E1" from="J2" to="J3" priority="-1" numLanes="3" speed="13.89">
        <lane index="0" allow="pedestrian" width="2.00"/>
        <lane index="1" disallow="pedestrian"/>
        <lane index="2" disallow="pedestrian"/>
    </edge>
    <edge id="E10" from="J2" to="J8" priority="-1" numLanes="3" speed="13.89">
        <lane index="0" allow="pedestrian" width="2.00"/>
        <lane index="1" disallow="pedestrian"/>
        <lane index="2" disallow="pedestrian"/>
    </edge>
    <edge id="E5" from="J6" to="J2" priority="1" numLanes="3" speed="13.89">
        <lane index="0" allow="pedestrian" width="2.00"/>
        <lane index="1" disallow="pedestrian"/>
        <lane index="2" disallow="pedestrian"/>
    </edge>
    <edge id="E6" from="J2" to="J7" priority="1" numLanes="3" speed="13.89">
        <lane index="0" allow="pedestrian" width="2.00"/>
        <lane index="1" disallow="pedestrian"/>
        <lane index="2" disallow="pedestrian"/>
    </edge>
</edges>
