<?xml version="1.0" encoding="UTF-8"?>

<!-- generated on 2022-11-03 20:27:55 by Eclipse SUMO netedit Version 1.11.0
<configuration xmlns:xsi="http://www.w3.org/2001/XMLSchema-instance" xsi:noNamespaceSchemaLocation="http://sumo.dlr.de/xsd/netconvertConfiguration.xsd">

    <input>
        <sumo-net-file value="C:\Users\Alali\Desktop\myNewProject\intersections.net.xml"/>
    </input>

    <output>
        <output-file value="C:\Users\Alali\Desktop\myNewProject\intersections.net.xml"/>
        <plain-output-prefix value="C:\Users\Alali\Desktop\myNewProject\intersections"/>
    </output>

    <processing>
        <geometry.min-radius.fix.railways value="false"/>
        <geometry.max-grade.fix value="false"/>
        <offset.disable-normalization value="true"/>
        <lefthand value="false"/>
    </processing>

    <junctions>
        <no-internal-links value="false"/>
        <no-turnarounds value="true"/>
        <junctions.corner-detail value="5"/>
        <junctions.limit-turn-speed value="5.5"/>
        <rectangular-lane-cut value="false"/>
    </junctions>

    <pedestrian>
        <walkingareas value="false"/>
    </pedestrian>

    <report>
        <aggregate-warnings value="5"/>
    </report>

</configuration>
-->

<tlLogics version="1.9" xmlns:xsi="http://www.w3.org/2001/XMLSchema-instance" xsi:noNamespaceSchemaLocation="http://sumo.dlr.de/xsd/tllogic_file.xsd">
    <tlLogic id="J2" type="actuated" programID="0" offset="0">
        <phase duration="37" state="gGGgsrrrgGGgsrrrrGrG" minDur="5" maxDur="50"/>
        <phase duration="5"  state="gGGgsrrrgGGgsrrrrrrr"/>
        <phase duration="3"  state="yyyysrrryyyysrrrrrrr"/>
        <phase duration="37" state="srrrgGGgsrrrgGGgGrGr" minDur="5" maxDur="50"/>
        <phase duration="5"  state="srrrgGGgsrrrgGGgrrrr"/>
        <phase duration="3"  state="srrryyyysrrryyyyrrrr"/>
    </tlLogic>

    <connection from="-E1" to="E6" fromLane="1" toLane="1" tl="J2" linkIndex="4"/>
    <connection from="-E1" to="E10" fromLane="1" toLane="1" tl="J2" linkIndex="5"/>
    <connection from="-E1" to="E10" fromLane="2" toLane="2" tl="J2" linkIndex="6"/>
    <connection from="-E1" to="-E5" fromLane="2" toLane="2" tl="J2" linkIndex="7"/>
    <connection from="-E10" to="-E5" fromLane="1" toLane="1" tl="J2" linkIndex="12"/>
    <connection from="-E10" to="E1" fromLane="1" toLane="1" tl="J2" linkIndex="13"/>
    <connection from="-E10" to="E1" fromLane="2" toLane="2" tl="J2" linkIndex="14"/>
    <connection from="-E10" to="E6" fromLane="2" toLane="2" tl="J2" linkIndex="15"/>
    <connection from="-E6" to="E10" fromLane="1" toLane="1" tl="J2" linkIndex="0"/>
    <connection from="-E6" to="-E5" fromLane="1" toLane="1" tl="J2" linkIndex="1"/>
    <connection from="-E6" to="-E5" fromLane="2" toLane="2" tl="J2" linkIndex="2"/>
    <connection from="-E6" to="E1" fromLane="2" toLane="2" tl="J2" linkIndex="3"/>
    <connection from="E5" to="E1" fromLane="1" toLane="1" tl="J2" linkIndex="8"/>
    <connection from="E5" to="E6" fromLane="1" toLane="1" tl="J2" linkIndex="9"/>
    <connection from="E5" to="E6" fromLane="2" toLane="2" tl="J2" linkIndex="10"/>
    <connection from="E5" to="E10" fromLane="2" toLane="2" tl="J2" linkIndex="11"/>
</tlLogics>
