<?xml version="1.0" encoding="UTF-8"?>

<!-- generated on 2022-11-02 16:00:29 by Eclipse SUMO duarouter Version 1.11.0
<configuration xmlns:xsi="http://www.w3.org/2001/XMLSchema-instance" xsi:noNamespaceSchemaLocation="http://sumo.dlr.de/xsd/duarouterConfiguration.xsd">

    <input>
        <net-file value="intersections.net.xml"/>
        <additional-files value="pedType.add.xml"/>
        <route-files value="trips.trips.xml"/>
    </input>

    <output>
        <output-file value="ped.rou.xml"/>
        <alternatives-output value="ped.rou.alt.xml"/>
    </output>

    <time>
        <begin value="0"/>
        <end value="3600"/>
    </time>

    <report>
        <no-warnings value="true"/>
        <ignore-errors value="true"/>
        <no-step-log value="true"/>
    </report>

</configuration>
-->

<routes xmlns:xsi="http://www.w3.org/2001/XMLSchema-instance" xsi:noNamespaceSchemaLocation="http://sumo.dlr.de/xsd/routes_file.xsd">
    <vType id="myType" vClass="pedestrian">
        <param key="device.btreceiver.probability" value="1"/>
        <param key="has.btsender.probability" value="1"/>
    </vType>
    <person id="0" type="myType" depart="0.00">
        <walk edges="-E6"/>
    </person>
    <person id="1" type="myType" depart="2.00">
        <walk edges="-E8 E8 E10 -E1"/>
    </person>
    <person id="2" type="myType" depart="4.00">
        <walk edges="-E5 E5"/>
    </person>
    <person id="3" type="myType" depart="6.00">
        <walk edges="E7 -E10 -E5 E5"/>
    </person>
    <person id="4" type="myType" depart="9.00">
        <walk edges="-E10 E7"/>
    </person>
    <person id="5" type="myType" depart="15.00">
        <walk edges="-E6 E10 E7 -E7"/>
    </person>
    <person id="6" type="myType" depart="16.00">
        <walk edges="-E6 -E10"/>
    </person>
    <person id="7" type="myType" depart="26.00">
        <walk edges="-E7 E7 E10 -E6"/>
    </person>
    <person id="8" type="myType" depart="36.00">
        <walk edges="-E1 E1 -E10"/>
    </person>
    <person id="9" type="myType" depart="38.00">
        <walk edges="-E8 -E9 E9"/>
    </person>
    <person id="10" type="myType" depart="40.00">
        <walk edges="E6 E5"/>
    </person>
    <person id="11" type="myType" depart="51.00">
        <walk edges="-E7 E7 E10 -E1"/>
    </person>
    <person id="12" type="myType" depart="53.00">
        <walk edges="E8 -E9 E9"/>
    </person>
    <person id="13" type="myType" depart="54.00">
        <walk edges="-E9 -E10 E1 -E1"/>
    </person>
    <person id="14" type="myType" depart="66.00">
        <walk edges="E10 -E6"/>
    </person>
    <person id="15" type="myType" depart="67.00">
        <walk edges="-E6 -E5 E5"/>
    </person>
    <person id="16" type="myType" depart="72.00">
        <walk edges="-E9 -E8"/>
    </person>
    <person id="17" type="myType" depart="74.00">
        <walk edges="-E8 E8 -E7"/>
    </person>
    <person id="18" type="myType" depart="80.00">
        <walk edges="E9 E7"/>
    </person>
    <person id="19" type="myType" depart="84.00">
        <walk edges="-E8 -E9 E9"/>
    </person>
    <person id="20" type="myType" depart="92.00">
        <walk edges="E10 E1"/>
    </person>
    <person id="21" type="myType" depart="94.00">
        <walk edges="-E5 E10"/>
    </person>
    <person id="22" type="myType" depart="104.00">
        <walk edges="-E9 E9"/>
    </person>
    <person id="23" type="myType" depart="105.00">
        <walk edges="-E5 -E6"/>
    </person>
    <person id="24" type="myType" depart="110.00">
        <walk edges="E7 -E7"/>
    </person>
    <person id="25" type="myType" depart="118.00">
        <walk edges="-E8 E8 E10 -E6"/>
    </person>
    <person id="26" type="myType" depart="119.00">
        <walk edges="E6 E10"/>
    </person>
    <person id="27" type="myType" depart="121.00">
        <walk edges="-E10 E8"/>
    </person>
    <person id="28" type="myType" depart="134.00">
        <walk edges="E6 E10 E7 -E7"/>
    </person>
    <person id="29" type="myType" depart="142.00">
        <walk edges="-E5 E10 E7 -E7"/>
    </person>
    <person id="30" type="myType" depart="154.00">
        <walk edges="E8 E10 E1"/>
    </person>
    <person id="31" type="myType" depart="156.00">
        <walk edges="E5 -E5 E10 E7 -E7"/>
    </person>
    <person id="32" type="myType" depart="165.00">
        <walk edges="-E7 -E9"/>
    </person>
    <person id="33" type="myType" depart="170.00">
        <walk edges="E1 E10"/>
    </person>
    <person id="34" type="myType" depart="173.00">
        <walk edges="-E6 -E10 -E9"/>
    </person>
    <person id="35" type="myType" depart="174.00">
        <walk edges="-E8 E8 E10"/>
    </person>
    <person id="36" type="myType" depart="177.00">
        <walk edges="E6"/>
    </person>
    <person id="37" type="myType" depart="180.00">
        <walk edges="-E6 E10 E7"/>
    </person>
    <person id="38" type="myType" depart="192.00">
        <walk edges="-E7 E7 E10 -E6"/>
    </person>
    <person id="39" type="myType" depart="195.00">
        <walk edges="-E8 -E10 E1"/>
    </person>
    <person id="40" type="myType" depart="200.00">
        <walk edges="-E7 E7 E10 E6"/>
    </person>
    <person id="41" type="myType" depart="205.00">
        <walk edges="-E7 E7 -E10 -E5 E5"/>
    </person>
    <person id="42" type="myType" depart="208.00">
        <walk edges="-E8 -E10 E1"/>
    </person>
    <person id="43" type="myType" depart="209.00">
        <walk edges="E10 -E10"/>
    </person>
    <person id="44" type="myType" depart="210.00">
        <walk edges="-E8 -E10 -E5"/>
    </person>
    <person id="45" type="myType" depart="213.00">
        <walk edges="-E1 E1"/>
    </person>
    <person id="46" type="myType" depart="218.00">
        <walk edges="-E5 -E10"/>
    </person>
    <person id="47" type="myType" depart="224.00">
        <walk edges="-E7 E7 -E10 -E5 E5"/>
    </person>
    <person id="48" type="myType" depart="226.00">
        <walk edges="E5 -E5 E10"/>
    </person>
    <person id="49" type="myType" depart="242.00">
        <walk edges="E8 E10 -E6"/>
    </person>
    <person id="50" type="myType" depart="244.00">
        <walk edges="E7 -E10 -E5"/>
    </person>
    <person id="51" type="myType" depart="248.00">
        <walk edges="E9 -E10"/>
    </person>
    <person id="52" type="myType" depart="252.00">
        <walk edges="-E6 -E5 E5"/>
    </person>
    <person id="53" type="myType" depart="265.00">
        <walk edges="E1 E6 -E6"/>
    </person>
    <person id="54" type="myType" depart="271.00">
        <walk edges="E9 -E9"/>
    </person>
    <person id="55" type="myType" depart="273.00">
        <walk edges="E10 -E1"/>
    </person>
    <person id="56" type="myType" depart="285.00">
        <walk edges="-E1 E1 -E10 -E9"/>
    </person>
    <person id="57" type="myType" depart="294.00">
        <walk edges="-E5 E10 E7 -E7"/>
    </person>
    <person id="58" type="myType" depart="299.00">
        <walk edges="-E1 E1 -E10 -E9"/>
    </person>
    <person id="59" type="myType" depart="301.00">
        <walk edges="E9 E7"/>
    </person>
    <person id="60" type="myType" depart="304.00">
        <walk edges="E6 -E10 -E9"/>
    </person>
    <person id="61" type="myType" depart="307.00">
        <walk edges="-E7"/>
    </person>
    <person id="62" type="myType" depart="325.00">
        <walk edges="E9 -E9 E8"/>
    </person>
    <person id="63" type="myType" depart="345.00">
        <walk edges="E6 E5"/>
    </person>
    <person id="64" type="myType" depart="349.00">
        <walk edges="E1 E10"/>
    </person>
    <person id="65" type="myType" depart="360.00">
        <walk edges="-E1 E10"/>
    </person>
    <person id="66" type="myType" depart="363.00">
        <walk edges="E10 E8"/>
    </person>
    <person id="67" type="myType" depart="365.00">
        <walk edges="E7 -E7"/>
    </person>
    <person id="68" type="myType" depart="368.00">
        <walk edges="E8 E10"/>
    </person>
    <person id="69" type="myType" depart="372.00">
        <walk edges="E7 E8"/>
    </person>
    <person id="70" type="myType" depart="384.00">
        <walk edges="E10 -E9"/>
    </person>
    <person id="71" type="myType" depart="393.00">
        <walk edges="-E7 E7 E10 E6"/>
    </person>
    <person id="72" type="myType" depart="406.00">
        <walk edges="E1 -E10 -E9"/>
    </person>
    <person id="73" type="myType" depart="410.00">
        <walk edges="E8 E10 E1"/>
    </person>
    <person id="74" type="myType" depart="411.00">
        <walk edges="E7 E8"/>
    </person>
    <person id="75" type="myType" depart="415.00">
        <walk edges="E8 -E10"/>
    </person>
    <person id="76" type="myType" depart="419.00">
        <walk edges="-E9 -E8"/>
    </person>
    <person id="77" type="myType" depart="420.00">
        <walk edges="-E8 -E9"/>
    </person>
    <person id="78" type="myType" depart="422.00">
        <walk edges="E5 E1"/>
    </person>
    <person id="79" type="myType" depart="427.00">
        <walk edges="E7 E10 -E6"/>
    </person>
    <person id="80" type="myType" depart="429.00">
        <walk edges="E6 -E5"/>
    </person>
    <person id="81" type="myType" depart="432.00">
        <walk edges="E8 -E10 -E5"/>
    </person>
    <person id="82" type="myType" depart="434.00">
        <walk edges="-E1 E10 E7"/>
    </person>
    <person id="83" type="myType" depart="436.00">
        <walk edges="E6 E1"/>
    </person>
    <person id="84" type="myType" depart="440.00">
        <walk edges="E6 E10 E8"/>
    </person>
    <person id="85" type="myType" depart="442.00">
        <walk edges="-E9 -E8"/>
    </person>
    <person id="86" type="myType" depart="444.00">
        <walk edges="-E10 E10"/>
    </person>
    <person id="87" type="myType" depart="445.00">
        <walk edges="-E6 E10"/>
    </person>
    <person id="88" type="myType" depart="448.00">
        <walk edges="E5 -E5 E10 E7"/>
    </person>
    <person id="89" type="myType" depart="453.00">
        <walk edges="-E8 -E10 -E5 E5"/>
    </person>
    <person id="90" type="myType" depart="455.00">
        <walk edges="E7 -E10"/>
    </person>
    <person id="91" type="myType" depart="456.00">
        <walk edges="E6 E10 E7"/>
    </person>
    <person id="92" type="myType" depart="470.00">
        <walk edges="E9 E7"/>
    </person>
    <person id="93" type="myType" depart="473.00">
        <walk edges="E8 E10 E1"/>
    </person>
    <person id="94" type="myType" depart="475.00">
        <walk edges="E6 -E6"/>
    </person>
    <person id="95" type="myType" depart="479.00">
        <walk edges="-E1 E1 -E5"/>
    </person>
    <person id="96" type="myType" depart="486.00">
        <walk edges="-E8 E8 E10"/>
    </person>
    <person id="97" type="myType" depart="487.00">
        <walk edges="-E7 E7 -E10 -E5"/>
    </person>
    <person id="98" type="myType" depart="489.00">
        <walk edges="E6 -E5"/>
    </person>
    <person id="99" type="myType" depart="492.00">
        <walk edges="E8 E10 -E1"/>
    </person>
    <person id="100" type="myType" depart="492.00">
        <walk edges="E8"/>
    </person>
    <person id="101" type="myType" depart="495.00">
        <walk edges="-E7 E7"/>
    </person>
    <person id="102" type="myType" depart="497.00">
        <walk edges="E7 E10 -E6"/>
    </person>
    <person id="103" type="myType" depart="515.00">
        <walk edges="-E9 -E7"/>
    </person>
    <person id="104" type="myType" depart="516.00">
        <walk edges="E1 E10 E7 -E7"/>
    </person>
    <person id="105" type="myType" depart="517.00">
        <walk edges="E7 -E10"/>
    </person>
    <person id="106" type="myType" depart="524.00">
        <walk edges="-E10 E8"/>
    </person>
    <person id="107" type="myType" depart="533.00">
        <walk edges="-E10 -E5 E5"/>
    </person>
    <person id="108" type="myType" depart="550.00">
        <walk edges="E7 -E10"/>
    </person>
    <person id="109" type="myType" depart="552.00">
        <walk edges="-E7 E7 E10 E6"/>
    </person>
    <person id="110" type="myType" depart="576.00">
        <walk edges="-E1 E1"/>
    </person>
    <person id="111" type="myType" depart="578.00">
        <walk edges="E9 E7"/>
    </person>
    <person id="112" type="myType" depart="583.00">
        <walk edges="-E10 -E6"/>
    </person>
    <person id="113" type="myType" depart="587.00">
        <walk edges="-E8 E8 E7"/>
    </person>
    <person id="114" type="myType" depart="590.00">
        <walk edges="E1 E6 -E6"/>
    </person>
    <person id="115" type="myType" depart="593.00">
        <walk edges="E9 -E10 E1 -E1"/>
    </person>
    <person id="116" type="myType" depart="598.00">
        <walk edges="E7 -E7"/>
    </person>
    <person id="117" type="myType" depart="601.00">
        <walk edges="E1 E10 E7"/>
    </person>
    <person id="118" type="myType" depart="605.00">
        <walk edges="E6 -E10 -E9"/>
    </person>
    <person id="119" type="myType" depart="606.00">
        <walk edges="-E5 E1 -E1"/>
    </person>
    <person id="120" type="myType" depart="618.00">
        <walk edges="E10 E7"/>
    </person>
    <person id="121" type="myType" depart="620.00">
        <walk edges="E5 -E5 E10 E7 -E7"/>
    </person>
    <person id="122" type="myType" depart="622.00">
        <walk edges="E8 -E7"/>
    </person>
    <person id="123" type="myType" depart="625.00">
        <walk edges="E10 E8 -E8"/>
    </person>
    <person id="124" type="myType" depart="628.00">
        <walk edges="-E1 E6"/>
    </person>
    <person id="125" type="myType" depart="644.00">
        <walk edges="E5 -E5 E10 E7"/>
    </person>
    <person id="126" type="myType" depart="645.00">
        <walk edges="E1 E10 E8"/>
    </person>
    <person id="127" type="myType" depart="651.00">
        <walk edges="E1 -E10 -E8"/>
    </person>
    <person id="128" type="myType" depart="653.00">
        <walk edges="-E7 -E9 E9"/>
    </person>
    <person id="129" type="myType" depart="655.00">
        <walk edges="E9 E10"/>
    </person>
    <person id="130" type="myType" depart="661.00">
        <walk edges="-E10 -E5"/>
    </person>
    <person id="131" type="myType" depart="673.00">
        <walk edges="-E1 E10"/>
    </person>
    <person id="132" type="myType" depart="680.00">
        <walk edges="-E1 E1 -E10 -E9"/>
    </person>
    <person id="133" type="myType" depart="688.00">
        <walk edges="-E7 E8 -E8"/>
    </person>
    <person id="134" type="myType" depart="694.00">
        <walk edges="E9 -E10 E1"/>
    </person>
    <person id="135" type="myType" depart="696.00">
        <walk edges="-E9 E8"/>
    </person>
    <person id="136" type="myType" depart="703.00">
        <walk edges="E1 E6"/>
    </person>
    <person id="137" type="myType" depart="710.00">
        <walk edges="-E10 E7 -E7"/>
    </person>
    <person id="138" type="myType" depart="722.00">
        <walk edges="-E9 E9"/>
    </person>
    <person id="139" type="myType" depart="728.00">
        <walk edges="E9 -E10"/>
    </person>
    <person id="140" type="myType" depart="729.00">
        <walk edges="-E7 E7 -E10 -E5"/>
    </person>
    <person id="141" type="myType" depart="732.00">
        <walk edges="-E10 -E5"/>
    </person>
    <person id="142" type="myType" depart="759.00">
        <walk edges="-E8 E8 E10 E6"/>
    </person>
    <person id="143" type="myType" depart="760.00">
        <walk edges="E1 -E10 E9"/>
    </person>
    <person id="144" type="myType" depart="765.00">
        <walk edges="E10 E1"/>
    </person>
    <person id="145" type="myType" depart="773.00">
        <walk edges="E1 -E10"/>
    </person>
    <person id="146" type="myType" depart="785.00">
        <walk edges="E5 -E5"/>
    </person>
    <person id="147" type="myType" depart="790.00">
        <walk edges="E5"/>
    </person>
    <person id="148" type="myType" depart="790.00">
        <walk edges="-E10 E7 -E7"/>
    </person>
    <person id="149" type="myType" depart="802.00">
        <walk edges="-E9 -E10 -E5 E5"/>
    </person>
    <person id="150" type="myType" depart="803.00">
        <walk edges="E1 -E1"/>
    </person>
    <person id="151" type="myType" depart="808.00">
        <walk edges="E1 E10 E7"/>
    </person>
    <person id="152" type="myType" depart="810.00">
        <walk edges="-E9 E7"/>
    </person>
    <person id="153" type="myType" depart="813.00">
        <walk edges="-E7 E7 E10 -E1"/>
    </person>
    <person id="154" type="myType" depart="814.00">
        <walk edges="E9 -E10 E1 -E1"/>
    </person>
    <person id="155" type="myType" depart="825.00">
        <walk edges="-E1 E10 E7 -E7"/>
    </person>
    <person id="156" type="myType" depart="833.00">
        <walk edges="-E5 -E10"/>
    </person>
    <person id="157" type="myType" depart="833.00">
        <walk edges="E10 -E5 E5"/>
    </person>
    <person id="158" type="myType" depart="834.00">
        <walk edges="E6 E10 E8 -E8"/>
    </person>
    <person id="159" type="myType" depart="836.00">
        <walk edges="E1 E10 E7 -E7"/>
    </person>
    <person id="160" type="myType" depart="842.00">
        <walk edges="E9 -E9 E8"/>
    </person>
    <person id="161" type="myType" depart="856.00">
        <walk edges="E6 -E5"/>
    </person>
    <person id="162" type="myType" depart="863.00">
        <walk edges="E9"/>
    </person>
    <person id="163" type="myType" depart="871.00">
        <walk edges="E9 -E9"/>
    </person>
    <person id="164" type="myType" depart="887.00">
        <walk edges="-E1 E10 E7"/>
    </person>
    <person id="165" type="myType" depart="891.00">
        <walk edges="E1 -E10 -E8"/>
    </person>
    <person id="166" type="myType" depart="894.00">
        <walk edges="E1 -E1"/>
    </person>
    <person id="167" type="myType" depart="896.00">
        <walk edges="E7 -E10 -E5 E5"/>
    </person>
    <person id="168" type="myType" depart="898.00">
        <walk edges="-E5"/>
    </person>
    <person id="169" type="myType" depart="905.00">
        <walk edges="-E8 -E10 E1"/>
    </person>
    <person id="170" type="myType" depart="906.00">
        <walk edges="-E1 E1 -E5"/>
    </person>
    <person id="171" type="myType" depart="909.00">
        <walk edges="E1 -E1"/>
    </person>
    <person id="172" type="myType" depart="911.00">
        <walk edges="-E10 E8"/>
    </person>
    <person id="173" type="myType" depart="913.00">
        <walk edges="E9 E7 -E7"/>
    </person>
    <person id="174" type="myType" depart="916.00">
        <walk edges="-E5 -E6"/>
    </person>
    <person id="175" type="myType" depart="921.00">
        <walk edges="-E9 E7"/>
    </person>
    <person id="176" type="myType" depart="924.00">
        <walk edges="-E6 -E10 E9"/>
    </person>
    <person id="177" type="myType" depart="928.00">
        <walk edges="E10 E7"/>
    </person>
    <person id="178" type="myType" depart="929.00">
        <walk edges="-E5 E5"/>
    </person>
    <person id="179" type="myType" depart="931.00">
        <walk edges="-E7 E8 -E8"/>
    </person>
    <person id="180" type="myType" depart="935.00">
        <walk edges="-E7 E7 -E10"/>
    </person>
    <person id="181" type="myType" depart="938.00">
        <walk edges="E8"/>
    </person>
    <person id="182" type="myType" depart="942.00">
        <walk edges="-E9 -E8"/>
    </person>
    <person id="183" type="myType" depart="943.00">
        <walk edges="-E6"/>
    </person>
    <person id="184" type="myType" depart="968.00">
        <walk edges="E9 -E9"/>
    </person>
    <person id="185" type="myType" depart="974.00">
        <walk edges="E6 E5"/>
    </person>
    <person id="186" type="myType" depart="975.00">
        <walk edges="E9 -E10 -E5 E5"/>
    </person>
    <person id="187" type="myType" depart="978.00">
        <walk edges="-E6 E6 E1"/>
    </person>
    <person id="188" type="myType" depart="983.00">
        <walk edges="-E10 -E8"/>
    </person>
    <person id="189" type="myType" depart="998.00">
        <walk edges="E10 -E5"/>
    </person>
    <person id="190" type="myType" depart="1002.00">
        <walk edges="-E10 E8"/>
    </person>
    <person id="191" type="myType" depart="1011.00">
        <walk edges="-E10"/>
    </person>
    <person id="192" type="myType" depart="1020.00">
        <walk edges="-E8 E8 E10 -E1"/>
    </person>
    <person id="193" type="myType" depart="1025.00">
        <walk edges="-E1 E6"/>
    </person>
    <person id="194" type="myType" depart="1032.00">
        <walk edges="E6 E1"/>
    </person>
    <person id="195" type="myType" depart="1044.00">
        <walk edges="-E7 E7 E10 -E6"/>
    </person>
    <person id="196" type="myType" depart="1048.00">
        <walk edges="E9 E10 E6"/>
    </person>
    <person id="197" type="myType" depart="1057.00">
        <walk edges="E1 E6 -E6"/>
    </person>
    <person id="198" type="myType" depart="1060.00">
        <walk edges="E6"/>
    </person>
    <person id="199" type="myType" depart="1062.00">
        <walk edges="E1 E6 -E6"/>
    </person>
    <person id="200" type="myType" depart="1068.00">
        <walk edges="-E10 E6"/>
    </person>
    <person id="201" type="myType" depart="1070.00">
        <walk edges="E9 -E10 -E5"/>
    </person>
    <person id="202" type="myType" depart="1079.00">
        <walk edges="-E9 -E10"/>
    </person>
    <person id="203" type="myType" depart="1081.00">
        <walk edges="E5 -E5 E10 E7"/>
    </person>
    <person id="204" type="myType" depart="1083.00">
        <walk edges="-E8 E8 E10 E6"/>
    </person>
    <person id="205" type="myType" depart="1088.00">
        <walk edges="E5 -E5 -E10 -E9"/>
    </person>
    <person id="206" type="myType" depart="1092.00">
        <walk edges="-E10 E6"/>
    </person>
    <person id="207" type="myType" depart="1095.00">
        <walk edges="E1 E10"/>
    </person>
    <person id="208" type="myType" depart="1101.00">
        <walk edges="E8 -E9 E9"/>
    </person>
    <person id="209" type="myType" depart="1109.00">
        <walk edges="-E1 E6 -E6"/>
    </person>
    <person id="210" type="myType" depart="1110.00">
        <walk edges="-E1 E10 E7"/>
    </person>
    <person id="211" type="myType" depart="1113.00">
        <walk edges="E1 E10"/>
    </person>
    <person id="212" type="myType" depart="1118.00">
        <walk edges="E5 E6"/>
    </person>
    <person id="213" type="myType" depart="1119.00">
        <walk edges="-E10 -E9"/>
    </person>
    <person id="214" type="myType" depart="1129.00">
        <walk edges="E7 E10 -E6"/>
    </person>
    <person id="215" type="myType" depart="1130.00">
        <walk edges="E5 -E5 E10"/>
    </person>
    <person id="216" type="myType" depart="1130.00">
        <walk edges="-E9 -E8"/>
    </person>
    <person id="217" type="myType" depart="1135.00">
        <walk edges="E8 E10 -E6"/>
    </person>
    <person id="218" type="myType" depart="1142.00">
        <walk edges="-E8 -E10 E1"/>
    </person>
    <person id="219" type="myType" depart="1145.00">
        <walk edges="-E9 E10 -E6"/>
    </person>
    <person id="220" type="myType" depart="1147.00">
        <walk edges="-E5 E1"/>
    </person>
    <person id="221" type="myType" depart="1153.00">
        <walk edges="-E8 E8 E10 -E6"/>
    </person>
    <person id="222" type="myType" depart="1155.00">
        <walk edges="E5 -E5 E10 E7"/>
    </person>
    <person id="223" type="myType" depart="1158.00">
        <walk edges="E9 -E10 -E5 E5"/>
    </person>
    <person id="224" type="myType" depart="1159.00">
        <walk edges="E8"/>
    </person>
    <person id="225" type="myType" depart="1161.00">
        <walk edges="-E10"/>
    </person>
    <person id="226" type="myType" depart="1162.00">
        <walk edges="E1 -E10 -E9"/>
    </person>
    <person id="227" type="myType" depart="1167.00">
        <walk edges="-E5 E6"/>
    </person>
    <person id="228" type="myType" depart="1175.00">
        <walk edges="E7 -E7"/>
    </person>
    <person id="229" type="myType" depart="1176.00">
        <walk edges="-E6 E10 E7 -E7"/>
    </person>
    <person id="230" type="myType" depart="1178.00">
        <walk edges="-E8 -E9"/>
    </person>
    <person id="231" type="myType" depart="1181.00">
        <walk edges="E7 E9"/>
    </person>
    <person id="232" type="myType" depart="1186.00">
        <walk edges="-E1 E10 E8"/>
    </person>
    <person id="233" type="myType" depart="1189.00">
        <walk edges="-E9 -E10 -E5"/>
    </person>
    <person id="234" type="myType" depart="1191.00">
        <walk edges="E5 -E5"/>
    </person>
    <person id="235" type="myType" depart="1193.00">
        <walk edges="E10 -E6"/>
    </person>
    <person id="236" type="myType" depart="1195.00">
        <walk edges="-E6 -E10"/>
    </person>
    <person id="237" type="myType" depart="1205.00">
        <walk edges="E9 -E10 E1"/>
    </person>
    <person id="238" type="myType" depart="1210.00">
        <walk edges="E9 E10 -E6"/>
    </person>
    <person id="239" type="myType" depart="1215.00">
        <walk edges="E5 -E5 -E10 E9"/>
    </person>
    <person id="240" type="myType" depart="1220.00">
        <walk edges="-E6"/>
    </person>
    <person id="241" type="myType" depart="1221.00">
        <walk edges="E8 -E10 -E5"/>
    </person>
    <person id="242" type="myType" depart="1224.00">
        <walk edges="E10 E8"/>
    </person>
    <person id="243" type="myType" depart="1240.00">
        <walk edges="E10 E8"/>
    </person>
    <person id="244" type="myType" depart="1246.00">
        <walk edges="E5 -E5 E10"/>
    </person>
    <person id="245" type="myType" depart="1248.00">
        <walk edges="-E6 -E10"/>
    </person>
    <person id="246" type="myType" depart="1249.00">
        <walk edges="-E8 E8 E10 E6"/>
    </person>
    <person id="247" type="myType" depart="1255.00">
        <walk edges="E7 -E7"/>
    </person>
    <person id="248" type="myType" depart="1256.00">
        <walk edges="-E5 -E10 -E8"/>
    </person>
    <person id="249" type="myType" depart="1258.00">
        <walk edges="E10"/>
    </person>
    <person id="250" type="myType" depart="1259.00">
        <walk edges="E9 -E10 -E5"/>
    </person>
    <person id="251" type="myType" depart="1265.00">
        <walk edges="E10 E7"/>
    </person>
    <person id="252" type="myType" depart="1269.00">
        <walk edges="-E5 E10 E7 -E7"/>
    </person>
    <person id="253" type="myType" depart="1270.00">
        <walk edges="E7 -E7"/>
    </person>
    <person id="254" type="myType" depart="1272.00">
        <walk edges="E1 -E5"/>
    </person>
    <person id="255" type="myType" depart="1276.00">
        <walk edges="E6 E5"/>
    </person>
    <person id="256" type="myType" depart="1276.00">
        <walk edges="-E7 E7 -E10 E1"/>
    </person>
    <person id="257" type="myType" depart="1282.00">
        <walk edges="E8 E10 E6"/>
    </person>
    <person id="258" type="myType" depart="1293.00">
        <walk edges="-E8"/>
    </person>
    <person id="259" type="myType" depart="1305.00">
        <walk edges="-E6 -E5"/>
    </person>
    <person id="260" type="myType" depart="1307.00">
        <walk edges="E8 -E7"/>
    </person>
    <person id="261" type="myType" depart="1309.00">
        <walk edges="E7 -E7"/>
    </person>
    <person id="262" type="myType" depart="1311.00">
        <walk edges="E8 -E10"/>
    </person>
    <person id="263" type="myType" depart="1322.00">
        <walk edges="-E5 E10 E7"/>
    </person>
    <person id="264" type="myType" depart="1327.00">
        <walk edges="-E8 E8 E10"/>
    </person>
    <person id="265" type="myType" depart="1337.00">
        <walk edges="E6"/>
    </person>
    <person id="266" type="myType" depart="1337.00">
        <walk edges="E8 -E10 -E5 E5"/>
    </person>
    <person id="267" type="myType" depart="1338.00">
        <walk edges="-E6 E10 E7"/>
    </person>
    <person id="268" type="myType" depart="1349.00">
        <walk edges="E9 E10"/>
    </person>
    <person id="269" type="myType" depart="1359.00">
        <walk edges="E5 -E5 E10"/>
    </person>
    <person id="270" type="myType" depart="1365.00">
        <walk edges="-E10 -E6"/>
    </person>
    <person id="271" type="myType" depart="1368.00">
        <walk edges="-E7 E7 E10 E6"/>
    </person>
    <person id="272" type="myType" depart="1374.00">
        <walk edges="E8 E10 E1"/>
    </person>
    <person id="273" type="myType" depart="1376.00">
        <walk edges="E7 -E10"/>
    </person>
    <person id="274" type="myType" depart="1382.00">
        <walk edges="-E6 E6"/>
    </person>
    <person id="275" type="myType" depart="1385.00">
        <walk edges="E10"/>
    </person>
    <person id="276" type="myType" depart="1387.00">
        <walk edges="-E5 -E10 -E8"/>
    </person>
    <person id="277" type="myType" depart="1387.00">
        <walk edges="-E7 E7"/>
    </person>
    <person id="278" type="myType" depart="1404.00">
        <walk edges="E8 E10 -E6"/>
    </person>
    <person id="279" type="myType" depart="1405.00">
        <walk edges="E9 -E10 -E5 E5"/>
    </person>
    <person id="280" type="myType" depart="1406.00">
        <walk edges="E5 -E5 -E10 -E8"/>