<?xml version="1.0" encoding="UTF-8"?>
<!-- generated on 2022-11-03 20:29:23.311241 by randomTrips.py v1_11_0+0000-d32ff7d52a3
  options: -n intersections.net.xml -a pedType.add.xml <doubleminus>trip-attributes=type="myType" -r ped.rou.xml <doubleminus>pedestrians <doubleminus>period 5 <doubleminus>binomial 2
-->
<routes xmlns:xsi="http://www.w3.org/2001/XMLSchema-instance" xsi:noNamespaceSchemaLocation="http://sumo.dlr.de/xsd/routes_file.xsd">
    <person id="0" depart="0.00" type="myType">
        <walk from="-E5" to="-E10"/>
    </person>
    <person id="1" depart="2.00" type="myType">
        <walk from="-E6" to="-E1"/>
    </person>
    <person id="2" depart="4.00" type="myType">
        <walk from="-E10" to="E10"/>
    </person>
    <person id="3" depart="6.00" type="myType">
        <walk from="E5" to="E10"/>
    </person>
    <person id="4" depart="9.00" type="myType">
        <walk from="-E1" to="E5"/>
    </person>
    <person id="5" depart="15.00" type="myType">
        <walk from="-E10" to="-E5"/>
    </person>
    <person id="6" depart="16.00" type="myType">
        <walk from="-E10" to="-E1"/>
    </person>
    <person id="7" depart="26.00" type="myType">
        <walk from="-E5" to="-E5"/>
    </person>
    <person id="8" depart="36.00" type="myType">
        <walk from="-E1" to="-E1"/>
    </person>
    <person id="9" depart="38.00" type="myType">
        <walk from="-E6" to="E6"/>
    </person>
    <person id="10" depart="40.00" type="myType">
        <walk from="E10" to="E10"/>
    </person>
    <person id="11" depart="51.00" type="myType">
        <walk from="-E5" to="-E1"/>
    </person>
    <person id="12" depart="53.00" type="myType">
        <walk from="E6" to="E6"/>
    </person>
    <person id="13" depart="54.00" type="myType">
        <walk from="-E6" to="-E1"/>
    </person>
    <person id="14" depart="66.00" type="myType">
        <walk from="E10" to="-E10"/>
    </person>
    <person id="15" depart="67.00" type="myType">
        <walk from="-E10" to="E10"/>
    </person>
    <person id="16" depart="72.00" type="myType">
        <walk from="-E6" to="-E6"/>
    </person>
    <person id="17" depart="74.00" type="myType">
        <walk from="-E6" to="-E5"/>
    </person>
    <person id="18" depart="80.00" type="myType">
        <walk from="E6" to="E5"/>
    </person>
    <person id="19" depart="84.00" type="myType">
        <walk from="-E6" to="E6"/>
    </person>
    <person id="20" depart="92.00" type="myType">
        <walk from="E1" to="E1"/>
    </person>
    <person id="21" depart="94.00" type="myType">
        <walk from="-E10" to="E1"/>
    </person>
    <person id="22" depart="104.00" type="myType">
        <walk from="-E6" to="E6"/>
    </person>
    <person id="23" depart="105.00" type="myType">
        <walk from="-E10" to="-E5"/>
    </person>
    <person id="24" depart="110.00" type="myType">
        <walk from="E5" to="-E5"/>
    </person>
    <person id="25" depart="118.00" type="myType">
        <walk from="-E6" to="-E5"/>
    </person>
    <person id="26" depart="119.00" type="myType">
        <walk from="E5" to="E10"/>
    </person>
    <person id="27" depart="121.00" type="myType">
        <walk from="-E1" to="E6"/>
    </person>
    <person id="28" depart="134.00" type="myType">
        <walk from="E10" to="-E5"/>
    </person>
    <person id="29" depart="142.00" type="myType">
        <walk from="-E10" to="-E5"/>
    </person>
    <person id="30" depart="154.00" type="myType">
        <walk from="E6" to="E1"/>
    </person>
    <person id="31" depart="156.00" type="myType">
        <walk from="E10" to="-E5"/>
    </person>
    <person id="32" depart="165.00" type="myType">
        <walk from="-E5" to="-E6"/>
    </person>
    <person id="33" depart="170.00" type="myType">
        <walk from="E1" to="E10"/>
    </person>
    <person id="34" depart="173.00" type="myType">
        <walk from="-E10" to="-E6"/>
    </person>
    <person id="35" depart="174.00" type="myType">
        <walk from="-E6" to="E10"/>
    </person>
    <person id="36" depart="177.00" type="myType">
        <walk from="E5" to="E5"/>
    </person>
    <person id="37" depart="180.00" type="myType">
        <walk from="-E10" to="E5"/>
    </person>
    <person id="38" depart="192.00" type="myType">
        <walk from="-E5" to="-E5"/>
    </person>
    <person id="39" depart="195.00" type="myType">
        <walk from="-E6" to="E1"/>
    </person>
    <person id="40" depart="200.00" type="myType">
        <walk from="-E5" to="E5"/>
    </person>
    <person id="41" depart="205.00" type="myType">
        <walk from="-E5" to="E10"/>
    </person>
    <person id="42" depart="208.00" type="myType">
        <walk from="-E6" to="E1"/>
    </person>
    <person id="43" depart="209.00" type="myType">
        <walk from="E10" to="-E10"/>
    </person>
    <person id="44" depart="210.00" type="myType">
        <walk from="-E6" to="-E10"/>
    </person>
    <person id="45" depart="213.00" type="myType">
        <walk from="-E1" to="E1"/>
    </person>
    <person id="46" depart="218.00" type="myType">
        <walk from="-E10" to="-E10"/>
    </person>
    <person id="47" depart="224.00" type="myType">
        <walk from="-E5" to="E10"/>
    </person>
    <person id="48" depart="226.00" type="myType">
        <walk from="E10" to="E10"/>
    </person>
    <person id="49" depart="242.00" type="myType">
        <walk from="E6" to="-E10"/>
    </person>
    <person id="50" depart="244.00" type="myType">
        <walk from="E5" to="-E10"/>
    </person>
    <person id="51" depart="248.00" type="myType">
        <walk from="E6" to="-E1"/>
    </person>
    <person id="52" depart="252.00" type="myType">
        <walk from="-E10" to="E10"/>
    </person>
    <person id="53" depart="265.00" type="myType">
        <walk from="E1" to="-E5"/>
    </person>
    <person id="54" depart="271.00" type="myType">
        <walk from="E6" to="-E6"/>
    </person>
    <person id="55" depart="273.00" type="myType">
        <walk from="E10" to="-E1"/>
    </person>
    <person id="56" depart="285.00" type="myType">
        <walk from="-E1" to="-E6"/>
    </person>
    <person id="57" depart="294.00" type="myType">
        <walk from="-E10" to="-E5"/>
    </person>
    <person id="58" depart="299.00" type="myType">
        <walk from="-E1" to="-E6"/>
    </person>
    <person id="59" depart="301.00" type="myType">
        <walk from="E6" to="E5"/>
    </person>
    <person id="60" depart="304.00" type="myType">
        <walk from="E5" to="-E6"/>
    </person>
    <person id="61" depart="307.00" type="myType">
        <walk from="-E5" to="-E5"/>
    </person>
    <person id="62" depart="325.00" type="myType">
        <walk from="E6" to="E6"/>
    </person>
    <person id="63" depart="345.00" type="myType">
        <walk from="E10" to="E10"/>
    </person>
    <person id="64" depart="349.00" type="myType">
        <walk from="E1" to="E1"/>
    </person>
    <person id="65" depart="360.00" type="myType">
        <walk from="-E1" to="E10"/>
    </person>
    <person id="66" depart="363.00" type="myType">
        <walk from="E10" to="E5"/>
    </person>
    <person id="67" depart="365.00" type="myType">
        <walk from="E5" to="-E5"/>
    </person>
    <person id="68" depart="368.00" type="myType">
        <walk from="E5" to="E1"/>
    </person>
    <person id="69" depart="372.00" type="myType">
        <walk from="E5" to="E6"/>
    </person>
    <person id="70" depart="384.00" type="myType">
        <walk from="E1" to="-E6"/>
    </person>
    <person id="71" depart="393.00" type="myType">
        <walk from="-E5" to="E10"/>
    </person>
    <person id="72" depart="406.00" type="myType">
        <walk from="E1" to="-E6"/>
    </person>
    <person id="73" depart="410.00" type="myType">
        <walk from="E6" to="E1"/>
    </person>
    <person id="74" depart="411.00" type="myType">
        <walk from="E5" to="E6"/>
    </person>
    <person id="75" depart="415.00" type="myType">
        <walk from="E6" to="-E10"/>
    </person>
    <person id="76" depart="419.00" type="myType">
        <walk from="-E6" to="-E6"/>
    </person>
    <person id="77" depart="420.00" type="myType">
        <walk from="-E5" to="-E6"/>
    </person>
    <person id="78" depart="422.00" type="myType">
        <walk from="E10" to="E1"/>
    </person>
    <person id="79" depart="427.00" type="myType">
        <walk from="E5" to="-E10"/>
    </person>
    <person id="80" depart="429.00" type="myType">
        <walk from="E5" to="-E10"/>
    </person>
    <person id="81" depart="432.00" type="myType">
        <walk from="E5" to="-E10"/>
    </person>
    <person id="82" depart="434.00" type="myType">
        <walk from="-E1" to="E5"/>
    </person>
    <person id="83" depart="436.00" type="myType">
        <walk from="E10" to="E1"/>
    </person>
    <person id="84" depart="440.00" type="myType">
        <walk from="E5" to="E5"/>
    </person>
    <person id="85" depart="442.00" type="myType">
        <walk from="-E6" to="-E6"/>
    </person>
    <person id="86" depart="444.00" type="myType">
        <walk from="-E1" to="E1"/>
    </person>
    <person id="87" depart="445.00" type="myType">
        <walk from="-E5" to="E10"/>
    </person>
    <person id="88" depart="448.00" type="myType">
        <walk from="E10" to="E5"/>
    </person>
    <person id="89" depart="453.00" type="myType">
        <walk from="-E6" to="E10"/>
    </person>
    <person id="90" depart="455.00" type="myType">
        <walk from="E5" to="-E1"/>
    </person>
    <person id="91" depart="456.00" type="myType">
        <walk from="E10" to="E5"/>
    </person>
    <person id="92" depart="470.00" type="myType">
        <walk from="E6" to="E5"/>
    </person>
    <person id="93" depart="473.00" type="myType">
        <walk from="E5" to="E1"/>
    </person>
    <person id="94" depart="475.00" type="myType">
        <walk from="E10" to="-E10"/>
    </person>
    <person id="95" depart="479.00" type="myType">
        <walk from="-E1" to="-E10"/>
    </person>
    <person id="96" depart="486.00" type="myType">
        <walk from="-E6" to="E1"/>
    </person>
    <person id="97" depart="487.00" type="myType">
        <walk from="-E5" to="-E10"/>
    </person>
    <person id="98" depart="489.00" type="myType">
        <walk from="E10" to="-E10"/>
    </person>
    <person id="99" depart="492.00" type="myType">
        <walk from="E5" to="-E1"/>
    </person>
    <person id="100" depart="492.00" type="myType">
        <walk from="E6" to="E5"/>
    </person>
    <person id="101" depart="495.00" type="myType">
        <walk from="-E5" to="E5"/>
    </person>
    <person id="102" depart="497.00" type="myType">
        <walk from="E5" to="-E10"/>
    </person>
    <person id="103" depart="515.00" type="myType">
        <walk from="-E6" to="-E5"/>
    </person>
    <person id="104" depart="516.00" type="myType">
        <walk from="E1" to="-E5"/>
    </person>
    <person id="105" depart="517.00" type="myType">
        <walk from="E5" to="-E1"/>
    </person>
    <person id="106" depart="524.00" type="myType">
        <walk from="-E1" to="E6"/>
    </person>
    <person id="107" depart="533.00" type="myType">
        <walk from="-E1" to="E10"/>
    </person>
    <person id="108" depart="550.00" type="myType">
        <walk from="E5" to="-E1"/>
    </person>
    <person id="109" depart="552.00" type="myType">
        <walk from="-E5" to="E5"/>
    </person>
    <person id="110" depart="576.00" type="myType">
        <walk from="-E1" to="E1"/>
    </person>
    <person id="111" depart="578.00" type="myType">
        <walk from="E6" to="E5"/>
    </person>
    <person id="112" depart="583.00" type="myType">
        <walk from="-E1" to="-E5"/>
    </person>
    <person id="113" depart="587.00" type="myType">
        <walk from="-E6" to="E5"/>
    </person>
    <person id="114" depart="590.00" type="myType">
        <walk from="E1" to="-E10"/>
    </person>
    <person id="115" depart="593.00" type="myType">
        <walk from="E6" to="-E1"/>
    </person>
    <person id="116" depart="598.00" type="myType">
        <walk from="E5" to="-E5"/>
    </person>
    <person id="117" depart="601.00" type="myType">
        <walk from="E1" to="E5"/>
    </person>
    <person id="118" depart="605.00" type="myType">
        <walk from="E5" to="-E6"/>
    </person>
    <person id="119" depart="606.00" type="myType">
        <walk from="-E10" to="-E1"/>
    </person>
    <person id="120" depart="618.00" type="myType">
        <walk from="E1" to="E5"/>
    </person>
    <person id="121" depart="620.00" type="myType">
        <walk from="E10" to="-E5"/>
    </person>
    <person id="122" depart="622.00" type="myType">
        <walk from="E5" to="-E5"/>
    </person>
    <person id="123" depart="625.00" type="myType">
        <walk from="E10" to="-E5"/>
    </person>
    <person id="124" depart="628.00" type="myType">
        <walk from="-E1" to="E5"/>
    </person>
    <person id="125" depart="644.00" type="myType">
        <walk from="E10" to="E5"/>
    </person>
    <person id="126" depart="645.00" type="myType">
        <walk from="E1" to="E6"/>
    </person>
    <person id="127" depart="651.00" type="myType">
        <walk from="E1" to="-E5"/>
    </person>
    <person id="128" depart="653.00" type="myType">
        <walk from="-E5" to="E6"/>
    </person>
    <person id="129" depart="655.00" type="myType">
        <walk from="E6" to="E10"/>
    </person>
    <person id="130" depart="661.00" type="myType">
        <walk from="-E1" to="-E10"/>
    </person>
    <person id="131" depart="673.00" type="myType">
        <walk from="-E1" to="E10"/>
    </person>
    <person id="132" depart="680.00" type="myType">
        <walk from="-E1" to="-E6"/>
    </person>
    <person id="133" depart="688.00" type="myType">
        <walk from="-E5" to="-E6"/>
    </person>
    <person id="134" depart="694.00" type="myType">
        <walk from="E6" to="E1"/>
    </person>
    <person id="135" depart="696.00" type="myType">
        <walk from="-E6" to="E6"/>
    </person>
    <person id="136" depart="703.00" type="myType">
        <walk from="E1" to="E5"/>
    </person>
    <person id="137" depart="710.00" type="myType">
        <walk from="-E10" to="-E5"/>
    </person>
    <person id="138" depart="722.00" type="myType">
        <walk from="-E6" to="E6"/>
    </person>
    <person id="139" depart="728.00" type="myType">
        <walk from="E6" to="-E1"/>
    </person>
    <person id="140" depart="729.00" type="myType">
        <walk from="-E5" to="-E10"/>
    </person>
    <person id="141" depart="732.00" type="myType">
        <walk from="-E10" to="-E10"/>
    </person>
    <person id="142" depart="759.00" type="myType">
        <walk from="-E6" to="E10"/>
    </person>
    <person id="143" depart="760.00" type="myType">
        <walk from="E1" to="E6"/>
    </person>
    <person id="144" depart="765.00" type="myType">
        <walk from="E1" to="E1"/>
    </person>
    <person id="145" depart="773.00" type="myType">
        <walk from="E1" to="-E1"/>
    </person>
    <person id="146" depart="785.00" type="myType">
        <walk from="E10" to="-E10"/>
    </person>
    <person id="147" depart="790.00" type="myType">
        <walk from="E10" to="E10"/>
    </person>
    <person id="148" depart="790.00" type="myType">
        <walk from="-E1" to="-E5"/>
    </person>
    <person id="149" depart="802.00" type="myType">
        <walk from="-E6" to="E10"/>
    </person>
    <person id="150" depart="803.00" type="myType">
        <walk from="E1" to="-E1"/>
    </person>
    <person id="151" depart="808.00" type="myType">
        <walk from="E1" to="E5"/>
    </person>
    <person id="152" depart="810.00" type="myType">
        <walk from="-E6" to="E5"/>
    </person>
    <person id="153" depart="813.00" type="myType">
        <walk from="-E5" to="-E1"/>
    </person>
    <person id="154" depart="814.00" type="myType">
        <walk from="E6" to="-E1"/>
    </person>
    <person id="155" depart="825.00" type="myType">
        <walk from="-E1" to="-E5"/>
    </person>
    <person id="156" depart="833.00" type="myType">
        <walk from="-E10" to="-E1"/>
    </person>
    <person id="157" depart="833.00" type="myType">
        <walk from="E1" to="E10"/>
    </person>
    <person id="158" depart="834.00" type="myType">
        <walk from="E10" to="-E6"/>
    </person>
    <person id="159" depart="836.00" type="myType">
        <walk from="E1" to="-E5"/>
    </person>
    <person id="160" depart="842.00" type="myType">
        <walk from="E6" to="E6"/>
    </person>
    <person id="161" depart="856.00" type="myType">
        <walk from="E10" to="-E10"/>
    </person>
    <person id="162" depart="863.00" type="myType">
        <walk from="E6" to="E6"/>
    </person>
    <person id="163" depart="871.00" type="myType">
        <walk from="E6" to="-E6"/>
    </person>
    <person id="164" depart="887.00" type="myType">
        <walk from="-E1" to="E5"/>
    </person>
    <person id="165" depart="891.00" type="myType">
        <walk from="E1" to="-E5"/>
    </person>
    <person id="166" depart="894.00" type="myType">
        <walk from="E1" to="-E1"/>
    </person>
    <person id="167" depart="896.00" type="myType">
        <walk from="E5" to="E10"/>
    </person>
    <person id="168" depart="898.00" type="myType">
        <walk from="-E10" to="-E10"/>
    </person>
    <person id="169" depart="905.00" type="myType">
        <walk from="-E6" to="E1"/>
    </person>
    <person id="170" depart="906.00" type="myType">
        <walk from="-E1" to="-E10"/>
    </person>
    <person id="171" depart="909.00" type="myType">
        <walk from="E1" to="-E1"/>
    </person>
    <person id="172" depart="911.00" type="myType">
        <walk from="-E1" to="E6"/>
    </person>
    <person id="173" depart="913.00" type="myType">
        <walk from="E6" to="-E5"/>
    </person>
    <person id="174" depart="916.00" type="myType">
        <walk from="-E10" to="-E10"/>
    </person>
    <person id="175" depart="921.00" type="myType">
        <walk from="-E6" to="E5"/>
    </person>
    <person id="176" depart="924.00" type="myType">
        <walk from="-E5" to="E6"/>
    </person>
    <person id="177" depart="928.00" type="myType">
        <walk from="E1" to="E5"/>
    </person>
    <person id="178" depart="929.00" type="myType">
        <walk from="-E10" to="E10"/>
    </person>
    <person id="179" depart="931.00" type="myType">
        <walk from="-E5" to="-E5"/>
    </person>
    <person id="180" depart="935.00" type="myType">
        <walk from="-E5" to="-E1"/>
    </person>
    <person id="181" depart="938.00" type="myType">
        <walk from="E6" to="E6"/>
    </person>
    <person id="182" depart="942.00" type="myType">
        <walk from="-E6" to="-E6"/>
    </person>
    <person id="183" depart="943.00" type="myType">
        <walk from="-E5" to="-E10"/>
    </person>
    <person id="184" depart="968.00" type="myType">
        <walk from="E6" to="-E6"/>
    </person>
    <person id="185" depart="974.00" type="myType">
        <walk from="E5" to="E10"/>
    </person>
    <person id="186" depart="975.00" type="myType">
        <walk from="E6" to="E10"/>
    </person>
    <person id="187" depart="978.00" type="myType">
        <walk from="-E5" to="E1"/>
    </person>
    <person id="188" depart="983.00" type="myType">
        <walk from="-E1" to="-E6"/>
    </person>
    <person id="189" depart="998.00" type="myType">
        <walk from="E1" to="-E10"/>
    </person>
    <person id="190" depart="1002.00" type="myType">
        <walk from="-E1" to="E5"/>
    </person>
    <person id="191" depart="1011.00" type="myType">
        <walk from="-E10" to="-E1"/>
    </person>
    <person id="192" depart="1020.00" type="myType">
        <walk from="-E5" to="-E1"/>
    </person>
    <person id="193" depart="1025.00" type="myType">
        <walk from="-E1" to="E5"/>
    </person>
    <person id="194" depart="1032.00" type="myType">
        <walk from="E10" to="E1"/>
    </person>
    <person id="195" depart="1044.00" type="myType">
        <walk from="-E5" to="-E5"/>
    </person>
    <person id="196" depart="1048.00" type="myType">
        <walk from="E6" to="E5"/>
    </person>
    <person id="197" depart="1057.00" type="myType">
        <walk from="E1" to="-E5"/>
    </person>
    <person id="198" depart="1060.00" type="myType">
        <walk from="E5" to="E10"/>
    </person>
    <person id="199" depart="1062.00" type="myType">
        <walk from="E1" to="-E10"/>
    </person>
    <person id="200" depart="1068.00" type="myType">
        <walk from="-E1" to="E5"/>
    </person>
    <person id="201" depart="1070.00" type="myType">
        <walk from="E6" to="-E10"/>
    </person>
    <person id="202" depart="1079.00" type="myType">
        <walk from="-E6" to="-E10"/>
    </person>
    <person id="203" depart="1081.00" type="myType">
        <walk from="E10" to="E5"/>
    </person>
    <person id="204" depart="1083.00" type="myType">
        <walk from="-E6" to="E10"/>
    </person>
    <person id="205" depart="1088.00" type="myType">
        <walk from="E10" to="-E6"/>
    </person>
    <person id="206" depart="1092.00" type="myType">
        <walk from="-E1" to="E5"/>
    </person>
    <person id="207" depart="1095.00" type="myType">
        <walk from="E1" to="E1"/>
    </person>
    <person id="208" depart="1101.00" type="myType">
        <walk from="E6" to="E6"/>
    </person>
    <person id="209" depart="1109.00" type="myType">
        <walk from="-E1" to="-E5"/>
    </person>
    <person id="210" depart="1110.00" type="myType">
        <walk from="-E1" to="E5"/>
    </person>
    <person id="211" depart="1113.00" type="myType">
        <walk from="E1" to="E1"/>
    </person>
    <person id="212" depart="1118.00" type="myType">
        <walk from="E10" to="E10"/>
    </person>
    <person id="213" depart="1119.00" type="myType">
        <walk from="-E1" to="-E6"/>
    </person>
    <person id="214" depart="1129.00" type="myType">
        <walk from="E5" to="-E5"/>
    </person>
    <person id="215" depart="1130.00" type="myType">
        <walk from="E10" to="E1"/>
    </person>
    <person id="216" depart="1130.00" type="myType">
        <walk from="-E6" to="-E5"/>
    </person>
    <person id="217" depart="1135.00" type="myType">
        <walk from="E5" to="-E10"/>
    </person>
    <person id="218" depart="1142.00" type="myType">
        <walk from="-E5" to="E1"/>
    </person>
    <person id="219" depart="1145.00" type="myType">
        <walk from="-E6" to="-E5"/>
    </person>
    <person id="220" depart="1147.00" type="myType">
        <walk from="-E10" to="E1"/>
    </person>
    <person id="221" depart="1153.00" type="myType">
        <walk from="-E6" to="-E10"/>
    </person>
    <person id="222" depart="1155.00" type="myType">
        <walk from="E10" to="E5"/>
    </person>
    <person id="223" depart="1158.00" type="myType">
        <walk from="E6" to="E10"/>
    </person>
    <person id="224" depart="1159.00" type="myType">
        <walk from="E6" to="E6"/>
    </person>
    <person id="225" depart="1161.00" type="myType">
        <walk from="-E1" to="-E10"/>
    </person>
    <person id="226" depart="1162.00" type="myType">
        <walk from="E1" to="-E6"/>
    </person>
    <person id="227" depart="1167.00" type="myType">
        <walk from="-E10" to="E5"/>
    </person>
    <person id="228" depart="1175.00" type="myType">
        <walk from="E5" to="-E5"/>
    </person>
    <person id="229" depart="1176.00" type="myType">
        <walk from="-E10" to="-E5"/>
    </person>
    <person id="230" depart="1178.00" type="myType">
        <walk from="-E6" to="-E6"/>
    </person>
    <person id="231" depart="1181.00" type="myType">
        <walk from="E5" to="E6"/>
    </person>
    <person id="232" depart="1186.00" type="myType">
        <walk from="-E1" to="E6"/>
    </person>
    <person id="233" depart="1189.00" type="myType">
        <walk from="-E6" to="-E10"/>
    </person>
    <person id="234" depart="1191.00" type="myType">
        <walk from="E10" to="-E10"/>
    </person>
    <person id="235" depart="1193.00" type="myType">
        <walk from="E1" to="-E10"/>
    </person>
    <person id="236" depart="1195.00" type="myType">
        <walk from="-E5" to="-E10"/>
    </person>
    <person id="237" depart="1205.00" type="myType">
        <walk from="E6" to="E1"/>
    </person>
    <person id="238" depart="1210.00" type="myType">
        <walk from="E6" to="-E10"/>
    </person>
    <person id="239" depart="1215.00" type="myType">
        <walk from="E10" to="E6"/>
    </person>
    <person id="240" depart="1220.00" type="myType">
        <walk from="-E10" to="-E10"/>
    </person>
    <person id="241" depart="1221.00" type="myType">
        <walk from="E6" to="-E10"/>
    </person>
    <person id="242" depart="1224.00" type="myType">
        <walk from="E1" to="E6"/>
    </person>
    <person id="243" depart="1240.00" type="myType">
        <walk from="E1" to="E6"/>
    </person>
    <person id="244" depart="1246.00" type="myType">
        <walk from="E10" to="E10"/>
    </person>
    <person id="245" depart="1248.00" type="myType">
        <walk from="-E5" to="-E1"/>
    </person>
    <person id="246" depart="1249.00" type="myType">
        <walk from="-E6" to="E10"/>
    </person>
    <person id="247" depart="1255.00" type="myType">
        <walk from="E5" to="-E5"/>
    </person>
    <person id="248" depart="1256.00" type="myType">
        <walk from="-E10" to="-E6"/>
    </person>
    <person id="249" depart="1258.00" type="myType">
        <walk from="E1" to="E1"/>
    </person>
    <person id="250" depart="1259.00" type="myType">
        <walk from="E6" to="-E10"/>
    </person>
    <person id="251" depart="1265.00" type="myType">
        <walk from="E1" to="E5"/>
    </person>
    <person id="252" depart="1269.00" type="myType">
        <walk from="-E10" to="-E5"/>
    </person>
    <person id="253" depart="1270.00" type="myType">
        <walk from="E5" to="-E5"/>
    </person>
    <person id="254" depart="1272.00" type="myType">
        <walk from="E1" to="-E10"/>
    </person>
    <person id="255" depart="1276.00" type="myType">
        <walk from="E5" to="E10"/>
    </person>
    <person id="256" depart="1276.00" type="myType">
        <walk from="-E5" to="E1"/>
    </person>
    <person id="257" depart="1282.00" type="myType">
        <walk from="E6" to="E10"/>
    </person>
    <person id="258" depart="1293.00" type="myType">
        <walk from="-E6" to="-E6"/>
    </person>
    <person id="259" depart="1305.00" type="myType">
        <walk from="-E5" to="-E10"/>
    </person>
    <person id="260" depart="1307.00" type="myType">
        <walk from="E6" to="-E5"/>
    </person>
    <person id="261" depart="1309.00" type="myType">
        <walk from="E5" to="-E5"/>
    </person>
    <person id="262" depart="1311.00" type="myType">
        <walk from="E5" to="-E10"/>
    </person>
    <person id="263" depart="1322.00" type="myType">
        <walk from="-E10" to="E5"/>
    </person>
    <person id="264" depart="1327.00" type="myType">
        <walk from="-E5" to="E1"/>
    </person>
    <person id="265" depart="1337.00" type="myType">
        <walk from="E5" to="E5"/>
    </person>
    <person id="266" depart="1337.00" type="myType">
        <walk from="E6" to="E10"/>
    </person>
    <person id="267" depart="1338.00" type="myType">
        <walk from="-E5" to="E5"/>
    </person>
    <person id="268" depart="1349.00" type="myType">
        <walk from="E6" to="E10"/>
    </person>
    <person id="269" depart="1359.00" type="myType">
        <walk from="E10" to="E1"/>
    </person>
    <person id="270" depart="1365.00" type="myType">
        <walk from="-E10" to="-E5"/>
    </person>
    <person id="271" depart="1368.00" type="myType">
        <walk from="-E5" to="E10"/>
    </person>
    <person id="272" depart="1374.00" type="myType">
        <walk from="E6" to="E1"/>
    </person>
    <person id="273" depart="1376.00" type="myType">
        <walk from="E5" to="-E10"/>
    </person>
    <person id="274" depart="1382.00" type="myType">
        <walk from="-E5" to="E5"/>
    </person>
    <person id="275" depart="1385.00" type="myType">
        <walk from="E1" to="E10"/>
    </person>
    <person id="276" depart="1387.00" type="myType">
        <walk from="-E10" to="-E5"/>
    </person>
    <person id="277" depart="1387.00" type="myType">
        <walk from="-E5" to="E5"/>
    </person>
    <person id="278" depart="1404.00" type="myType">
        <walk from="E6" to="-E5"/>
    </person>
    <person id="279" depart="1405.00" type="myType">
        <walk from="E6" to="E10"/>
    </person>
    <person id="280" depart="1406.00" type="myType">
        <walk from="E10" to="-E6"/>
    </person>
    <person id="281" depart="1419.00" type="myType">
        <walk from="-E6" to="-E10"/>
    </person>
    <person id="282" depart="1421.00" type="myType">
        <walk from="E10" to="E6"/>
    </person>